38
m_19722.out 0.29047
 C       1.25800       0.70730       -0.49510       0.02991615
 O       0.64340       -0.01250       0.56560       -0.26920937
 C       -0.13070       0.69530       1.42830       0.14726017
 C       -0.69140       -0.10220       2.44070       -0.05075106
 C       -1.49570       0.49990       3.39650       -0.02773363
 C       -1.75240       1.87300       3.35120       -0.04114197
 C       -1.19920       2.64550       2.32950       0.01166730
 C       -0.37330       2.06500       1.36050       -0.06306542
 C       -1.47270       4.07170       2.24040       0.11191906
 N       -0.57960       5.00070       1.98950       -0.24554524
 C       -1.14170       6.27910       1.92690       0.06227944
 C       -2.50050       6.33700       2.13660       0.01357294
 C       -3.35670       7.53300       2.17690       -0.07923637
 C       -3.68970       7.88660       3.60090       0.36712407
 O       -5.01980       8.15210       3.70000       -0.38351596
 O       -2.96810       7.96750       4.55490       -0.38822216
 S       -3.12320       4.72940       2.41470       -0.06205490
 C       -0.25070       7.40700       1.66060       0.01535679
 C       0.82700       7.65150       2.51780       -0.02106735
 C       1.66990       8.73550       2.28220       -0.03673431
 C       1.41000       9.54480       1.18380       0.10143950
 Cl       2.44340       10.87800       0.88530       -0.17504761
 C       0.35210       9.31940       0.31250       -0.04015813
 C       -0.48380       8.23220       0.55610       -0.03534279
 H       1.95690       1.45570       -0.10650       0.04901953
 H       1.80000       -0.08630       -1.02720       0.06693900
 H       0.50640       1.16230       -1.14770       0.04643409
 H       -0.48130       -1.16880       2.46210       0.05595847
 H       -1.93300       -0.10230       4.19330       0.04262567
 H       -2.36820       2.32610       4.12500       0.04221596
 H       0.07210       2.69040       0.58970       0.05150583
 H       -2.84210       8.41520       1.71410       0.07928493
 H       -4.28950       7.40970       1.57180       0.07917509
 H       -5.30850       8.40830       4.61010       0.32635128
 H       1.00320       6.98740       3.36730       0.06034146
 H       2.51040       8.93380       2.94770       0.06041046
 H       0.17570       9.96940       -0.54360       0.05633740
 H       -1.30920       8.01720       -0.12160       0.04169172
no frequencies
COc1cccc(c1)c1nc(c(CC(=O)O)s1)c1ccc(Cl)cc1
