44
c_2460.out 0.27283
 H       4.76520       5.62120       1.10160       0.04537485
 C       3.77550       5.20810       1.17850       -0.02700097
 S       2.52470       5.58680       0.04570       -0.03621285
 C       1.36250       4.56610       0.87840       0.02369511
 C       1.93930       3.99060       1.97740       -0.05342792
 H       1.43630       3.31920       2.65990       0.03861443
 C       3.32180       4.34770       2.14150       -0.00432343
 C       4.13570       3.80750       3.22330       0.01355270
 C       5.31540       3.12010       2.92230       -0.03449181
 H       5.61080       2.98420       1.88370       0.02969688
 C       6.10040       2.60490       3.95010       -0.02860012
 H       7.01600       2.06590       3.71580       0.03066081
 C       5.71380       2.77740       5.27840       -0.03047453
 H       6.33290       2.38010       6.07990       0.03044231
 C       4.53410       3.45660       5.57870       -0.02862543
 H       4.23090       3.58710       6.61570       0.03080645
 C       3.74160       3.96860       4.55410       -0.03240547
 H       2.81940       4.49820       4.78610       0.03220045
 C       0.02020       4.42180       0.41930       0.01123118
 S       -1.01970       5.82030       0.48710       -0.01827497
 C       -2.38230       4.94500       -0.06900       -0.02876656
 H       -3.34570       5.40590       -0.19820       0.04689068
 C       -2.06560       3.62780       -0.29500       -0.00886272
 C       -0.67190       3.32110       -0.04270       -0.01248298
 C       -0.19160       1.97550       -0.28760       0.01033523
 C       1.17340       1.66060       -0.21040       -0.03835815
 H       1.90330       2.44080       -0.00260       0.03233737
 C       1.62540       0.36380       -0.40450       -0.03010120
 H       2.68730       0.13920       -0.32710       0.02921432
 C       0.71290       -0.65000       -0.69840       -0.03113771
 H       1.05890       -1.67140       -0.84130       0.02916860
 C       -0.63570       -0.34830       -0.81690       -0.03547087
 H       -1.33140       -1.14900       -1.06720       0.03401093
 C       -1.11070       0.95920       -0.62710       0.00698178
 C       -2.52840       1.26280       -0.81030       0.00700418
 C       -3.45740       0.25820       -1.12740       -0.03500224
 H       -3.13290       -0.77970       -1.20360       0.03376812
 C       -4.79340       0.55900       -1.34760       -0.03136385
 H       -5.49740       -0.23320       -1.59420       0.02971380
 C       -5.23740       1.88040       -1.25620       -0.03029629
 H       -6.28340       2.11710       -1.43820       0.02996129
 C       -4.33960       2.88450       -0.92790       -0.03672519
 H       -4.68730       3.91270       -0.85000       0.02857803
 C       -2.98810       2.58750       -0.69170       0.00816576
no frequencies
c1sc(cc1c1ccccc1)c1scc2c1c1ccccc1c1ccccc21
