49
s_16924.out 0.26496
 C       1.02570       -1.01990       0.52390       -0.03307756
 N       -0.36820       -0.57080       0.66670       -0.19341634
 C       -0.61570       0.54390       1.44860       0.07586496
 S       0.29990       0.92810       2.91270       -0.07526175
 C       -0.78900       2.22680       3.32680       -0.02973981
 C       -1.78390       2.34310       2.40870       -0.04804422
 C       -1.69610       1.39450       1.33250       -0.04674032
 C       -2.69210       1.33780       0.27100       0.01064082
 C       -2.37540       1.79960       -1.00810       -0.03881255
 C       -3.32080       1.73780       -2.02860       -0.03201519
 C       -4.58950       1.21980       -1.77510       -0.03195543
 C       -4.91740       0.76760       -0.49910       -0.03361284
 C       -3.97280       0.82150       0.52630       0.00440892
 C       -4.30240       0.33280       1.87180       0.02250691
 C       -5.33560       0.90760       2.60540       -0.03371781
 C       -5.59030       0.50080       3.92700       -0.01401838
 C       -4.78420       -0.46810       4.47790       -0.02753868
 C       -3.73640       -1.06200       3.72460       0.00573572
 C       -3.50800       -0.69510       2.41990       -0.03299643
 C       -3.01640       -2.01100       4.57920       0.00784142
 C       -1.90520       -2.78130       4.31600       -0.03153087
 C       -1.40750       -3.59310       5.35030       -0.00845416
 C       -2.01470       -3.61230       6.60270       -0.01713412
 C       -3.14450       -2.81900       6.87180       -0.01358860
 C       -3.63020       -2.02640       5.85940       -0.01869319
 C       -4.78230       -1.06160       5.84810       0.23288757
 O       -5.53090       -0.82420       6.75280       -0.34228641
 C       -0.20850       -4.44920       5.13990       0.23704075
 C       0.32350       -4.61090       3.74670       -0.13165890
 O       0.32170       -5.00500       6.07270       -0.36059465
 H       1.40280       -1.40460       1.48900       0.05551511
 H       1.06280       -1.85710       -0.19400       0.04624317
 H       1.70990       -0.23120       0.17020       0.03927284
 H       -0.88930       -0.59220       -0.21160       0.15863865
 H       -0.63930       2.81930       4.21010       0.04099351
 H       -2.58660       3.06750       2.44790       0.03023073
 H       -1.39080       2.22200       -1.19790       0.02979125
 H       -3.06780       2.10010       -3.02340       0.03148245
 H       -5.32580       1.17050       -2.57450       0.03266471
 H       -5.90890       0.36350       -0.29870       0.03272502
 H       -5.94420       1.69300       2.16020       0.04047803
 H       -6.39980       0.95250       4.50060       0.05267936
 H       -2.71880       -1.15670       1.82840       0.04265635
 H       -1.42640       -2.74730       3.33850       0.04951253
 H       -1.60190       -4.24880       7.39150       0.06809192
 H       -3.61410       -2.83090       7.85540       0.05874833
 H       1.15060       -5.33690       3.72300       0.06505227
 H       -0.44780       -4.97290       3.05420       0.05948242
 H       0.71340       -3.66100       3.35440       0.06370250
no frequencies
CNc1sccc1c1ccccc1c1ccc2c(-c3cc(ccc3C2=O)C(=O)C)c1
