33
s_32788.out 0.22266
 C       1.64380       0.09980       0.73510       -0.04084369
 S       -0.00830       -0.07330       -0.01810       -0.19222109
 C       -0.60140       1.56050       -0.07850       0.02988399
 C       -0.91070       2.26030       -1.24420       -0.01602097
 N       -1.41770       3.50080       -0.88180       -0.08243485
 C       -1.42000       3.60490       0.50210       -0.01336474
 C       -0.91940       2.41030       1.02790       -0.02086618
 C       -0.75130       2.09790       2.41260       0.01949152
 S       -1.75260       0.87680       3.15500       0.03699122
 C       -0.96740       1.06080       4.63880       0.00794780
 C       -0.94990       0.44490       5.93060       0.01194384
 S       -1.71710       -0.79070       6.79540       0.03651679
 C       -0.71860       -0.52750       8.18990       -0.02828226
 C       0.18100       0.49390       7.99230       -0.03881295
 C       0.05460       1.06260       6.70370       -0.03060804
 C       0.65130       2.16970       5.93200       0.04047357
 C       1.48880       3.10340       6.44150       0.02544908
 C       1.87500       4.30510       5.79180       0.12723628
 N       2.17010       5.32550       5.33100       -0.22063390
 C       2.02130       2.98790       7.75690       0.12365645
 N       2.46740       2.90230       8.82190       -0.22099025
 C       0.02500       2.06840       4.60020       -0.03605203
 C       0.15970       2.62600       3.30850       0.03878063
 S       1.45570       3.69440       2.79620       -0.26455186
 H       2.12500       -0.88480       0.72120       0.05659613
 H       1.58830       0.44190       1.77470       0.04314942
 H       2.27530       0.80380       0.18300       0.04994144
 H       -0.80760       1.96480       -2.27190       0.05351424
 H       -1.72310       4.20640       -1.51340       0.17357355
 H       -1.76770       4.48130       1.01310       0.04391147
 H       -0.82230       -1.11890       9.08210       0.05742284
 H       0.90490       0.81960       8.72940       0.05792712
 H       0.87750       4.88890       3.00730       0.17127541
no frequencies
CSc1c[nH]cc1c1sc2[C]3SC=CC3=C([C](C#N)C#N)c2c1S
