47
s_13047.out 0.26834
 C       -1.11760       0.95760       0.29240       -0.03492088
 N       -0.51250       -0.16540       -0.42970       -0.18242518
 C       -0.82420       -1.46660       -0.05180       0.07046405
 C       -0.05560       -2.52650       -0.64060       -0.05210089
 C       -0.39900       -3.82670       -0.40630       -0.03306958
 C       -1.51530       -4.15780       0.41550       0.00396701
 C       -1.88660       -5.50760       0.63990       -0.03328516
 C       -2.97250       -5.81200       1.42280       -0.03594436
 C       -3.73900       -4.77760       2.00580       -0.03368563
 C       -3.40140       -3.45880       1.80280       -0.00401575
 C       -4.21970       -2.39790       2.35280       0.02118593
 S       -4.00920       -1.81910       3.98400       -0.00509990
 C       -5.23550       -0.61590       3.79610       -0.02741120
 C       -5.77700       -0.66250       2.54140       -0.03341795
 C       -6.80630       0.26760       2.03150       0.24297897
 C       -7.92600       0.61320       2.96710       -0.13405712
 O       -6.74240       0.72710       0.91870       -0.36156190
 C       -5.20660       -1.69110       1.71420       -0.00787062
 C       -5.65630       -1.97220       0.35270       0.03918918
 C       -4.85190       -1.63930       -0.74070       -0.02274278
 C       -5.26480       -1.95430       -2.03000       -0.01732201
 C       -6.49020       -2.60220       -2.20900       0.00541240
 C       -7.30990       -2.92960       -1.12470       -0.01890434
 C       -6.88740       -2.60970       0.15980       -0.02560393
 N       -6.92390       -2.94150       -3.55360       0.53431539
 O       -6.16560       -2.71330       -4.48310       -0.38714267
 O       -8.02890       -3.44210       -3.69720       -0.38835708
 C       -2.26530       -3.11530       1.00440       0.00961511
 C       -1.89010       -1.76980       0.77950       -0.07263922
 H       -0.74370       1.90930       -0.12080       0.04654809
 H       -2.21640       0.94800       0.14920       0.05191278
 H       -0.91020       0.93780       1.37580       0.03644444
 H       0.41820       0.00530       -0.77880       0.15434105
 H       0.78750       -2.27650       -1.27860       0.02972794
 H       0.17560       -4.64030       -0.85170       0.03450520
 H       -1.29720       -6.29760       0.17530       0.03368534
 H       -3.26310       -6.84530       1.59730       0.03169973
 H       -4.60860       -5.04140       2.60780       0.02784149
 H       -5.49450       0.06440       4.58820       0.05390500
 H       -8.74790       1.11580       2.43310       0.06798960
 H       -8.34200       -0.27560       3.45810       0.05774510
 H       -7.58380       1.30050       3.75320       0.06755362
 H       -3.89640       -1.13510       -0.58220       0.06017749
 H       -4.63870       -1.70070       -2.89150       0.07818451
 H       -8.26800       -3.43140       -1.28780       0.07666023
 H       -7.51020       -2.85600       1.01770       0.04623146
 H       -2.45720       -0.98140       1.26390       0.02929703
no frequencies
CNc1ccc2cccc(c3scc(C(=O)C)c3c3ccc(cc3)N(=O)=O)c2c1
