28
a_9850.out 0.25827
 C       -8.65600       -1.11150       -2.98870       -0.10526470
 C       -7.56880       -0.42200       -2.27950       0.02579676
 C       -6.21530       -0.60720       -2.45690       -0.04285985
 C       -5.46010       0.21500       -1.59790       -0.05217985
 C       -6.23210       1.03010       -0.76130       0.00817916
 S       -7.89020       0.77590       -1.03400       0.01365456
 C       -5.35690       1.83390       0.04600       0.01432153
 C       -4.02450       1.53370       -0.28000       -0.06121928
 C       -4.00790       0.46710       -1.32780       0.23628802
 O       -3.06540       -0.08210       -1.82060       -0.34130553
 C       -3.07770       2.30450       0.43800       0.01219926
 C       -3.71160       3.16490       1.32030       -0.03940429
 S       -5.43210       3.03260       1.24000       0.04168776
 C       -1.65870       2.20540       0.24960       0.02519023
 C       -0.92040       1.10130       -0.08040       -0.04609635
 C       0.48120       1.37810       -0.20070       -0.02122285
 C       1.46640       0.34560       -0.54570       0.20579389
 O       2.65160       0.58390       -0.57820       -0.34452863
 C       0.80130       2.69070       0.02950       -0.00302917
 S       -0.61140       3.60680       0.39700       0.00579895
 H       -9.57600       -0.51510       -3.08710       0.05629813
 H       -8.35840       -1.38900       -4.01510       0.05756290
 H       -8.93790       -2.05100       -2.48030       0.05963994
 H       -5.76630       -1.29110       -3.16390       0.05878241
 H       -3.23300       3.84410       2.00290       0.05795354
 H       -1.33310       0.11260       -0.24870       0.07173799
 H       1.09100       -0.66090       -0.77660       0.02946327
 H       1.79250       3.11950       -0.01160       0.07676220
no frequencies
Cc1cc2c(-c3c(C2=O)c(cs3)c2cc(C=O)cs2)s1
