36
a_1339.out 0.25372
 C       1.69510       0.24530       0.99810       0.03101364
 O       0.35700       -0.13660       1.30630       -0.26616386
 C       -0.61970       0.63040       0.76020       0.36661010
 O       -0.40970       1.50620       -0.03550       -0.38282889
 C       -1.92580       0.18890       1.28100       -0.01086926
 C       -2.72940       -0.75760       0.68430       -0.03025000
 S       -4.20530       -0.97460       1.56490       0.05600465
 C       -3.77200       0.18230       2.72940       0.01285469
 C       -2.50740       0.72320       2.44530       -0.04818561
 C       -2.15300       1.73380       3.49530       0.23998103
 O       -1.14910       2.37590       3.59630       -0.33571094
 C       -3.34810       1.73110       4.39030       -0.05699103
 C       -4.28640       0.80210       3.92080       0.01133594
 S       -5.65580       0.78010       4.92510       0.03919025
 C       -5.00570       2.00330       5.96650       -0.03777165
 C       -3.75520       2.42650       5.55450       0.01872861
 C       -2.92190       3.43590       6.17420       -0.03728145
 C       -3.40170       4.44390       6.91950       -0.03239425
 C       -2.54460       5.46710       7.51400       0.01546491
 C       -1.38720       5.90740       6.86300       -0.03218487
 C       -0.58100       6.87920       7.45040       -0.02757549
 C       -0.92770       7.42260       8.68600       -0.02913703
 C       -2.08440       6.99210       9.33510       -0.02922826
 C       -2.89170       6.01930       8.75280       -0.03355133
 H       1.94890       1.14450       1.57190       0.06915771
 H       2.28010       -0.61970       1.33170       0.07085706
 H       1.82320       0.42430       -0.07490       0.06842456
 H       -2.50810       -1.30970       -0.21340       0.06278268
 H       -5.54190       2.35890       6.82710       0.05616508
 H       -1.84770       3.33350       5.96740       0.06578410
 H       -4.46990       4.55070       7.11930       0.03818493
 H       -1.11860       5.49320       5.89050       0.04226923
 H       0.32190       7.21430       6.94280       0.03362869
 H       -0.29790       8.18220       9.14330       0.03142063
 H       -2.35630       7.41720       10.29890       0.03053166
 H       -3.78960       5.68210       9.26540       0.02973380
no frequencies
COC(=O)c1csc2-c3c(C(=O)c12)c(cs3)/C=C/c1ccccc1
