32
a_647.out 0.25596
 C       4.29990       2.21020       -2.07410       0.03777856
 O       3.14250       1.54660       -1.57940       -0.28139027
 C       3.29880       0.89990       -0.38600       0.37535238
 O       4.34090       0.90460       0.22100       -0.40773103
 C       2.07690       0.27120       -0.03590       -0.06145188
 C       1.02610       -0.27080       0.24460       -0.00935636
 C       -0.19530       -0.87140       0.52460       0.04941462
 N       -0.39350       -1.70450       1.62840       -0.07954985
 H       0.30730       -1.92850       2.29870       0.17011981
 C       -1.69800       -2.15740       1.61460       0.00018789
 C       -2.34670       -1.61770       0.50080       -0.05628264
 C       -1.41270       -0.80610       -0.19430       -0.00160635
 C       -1.64680       -0.04890       -1.39350       0.01694170
 C       -0.93080       1.08430       -1.75160       -0.03989272
 S       -1.45790       1.74910       -3.25060       0.03958643
 C       -2.64560       0.55770       -3.44250       0.01041368
 C       -2.63010       -0.34770       -2.36710       -0.05875076
 C       -3.68060       -1.38880       -2.59620       0.23741363
 O       -3.96850       -2.33090       -1.91570       -0.34239480
 C       -4.30850       -0.98170       -3.89200       -0.05322998
 C       -3.67470       0.17450       -4.36900       0.01275134
 S       -4.37320       0.67600       -5.83360       0.02911234
 C       -5.51150       -0.63960       -5.82370       -0.03086390
 C       -5.35110       -1.44480       -4.71970       -0.02961392
 H       4.58470       3.02510       -1.40100       0.06037689
 H       3.96160       2.59030       -3.04530       0.06535169
 H       5.12900       1.50360       -2.18980       0.06164698
 H       -2.08250       -2.81870       2.36780       0.04685471
 H       -3.36580       -1.79220       0.20970       0.06974189
 H       -0.12930       1.52870       -1.18520       0.05794151
 H       -6.23460       -0.76420       -6.60830       0.05400047
 H       -5.93820       -2.32530       -4.49520       0.05712794
no frequencies
COC(=O)C#Cc1[nH]ccc1c1csc2-c3c(C(=O)c12)ccs3
