29
h_5472.out 0.27812
 N       -1.10340       -0.98660       0.16860       -0.27715447
 C       -0.28410       0.13340       0.06660       0.07827529
 C       1.06610       0.05330       0.46100       -0.06060031
 C       1.85360       1.19440       0.43330       -0.03329744
 C       1.32270       2.41670       0.00540       -0.00458939
 C       -0.01450       2.48720       -0.39900       -0.03538116
 C       -0.82140       1.35910       -0.37270       -0.06060423
 C       2.16340       3.60350       -0.01980       -0.00273989
 C       2.28890       4.45550       -1.08160       -0.02768971
 S       3.40470       5.73350       -0.71690       -0.08327192
 C       3.71260       5.11430       0.89880       0.02127492
 C       2.97160       3.98370       1.11050       -0.06128775
 C       4.61500       5.72120       1.82510       0.02871019
 C       4.93630       5.30290       3.12580       -0.06548320
 C       5.88680       6.21420       3.64950       -0.06226488
 C       6.13340       7.17440       2.66700       -0.01150784
 N       5.35850       6.87490       1.55770       -0.09439391
 H       -0.68520       -1.88410       0.28560       0.15841572
 H       -1.99190       -0.98160       -0.28330       0.15826897
 H       1.48460       -0.89140       0.79130       0.02492667
 H       2.90000       1.13970       0.73940       0.02894606
 H       -0.42610       3.44090       -0.73090       0.02593230
 H       -1.86000       1.42270       -0.67830       0.02470857
 H       1.80020       4.38100       -2.03500       0.03640962
 H       2.96200       3.41330       2.02780       0.03558987
 H       4.53630       4.45090       3.63180       0.03072315
 H       6.32960       6.16820       4.62070       0.03050396
 H       6.78930       8.02110       2.68950       0.03206310
 H       5.33880       7.39740       0.71270       0.16551774
no frequencies
Nc1ccc(cc1)c1csc(c1)c1ccc[nH]1
