41
s_29368.out 0.2876
 C       1.35220       -0.32150       -0.21520       0.04311016
 O       -0.00920       0.09190       -0.16150       -0.31245603
 C       -0.34670       0.69810       1.02620       0.13351713
 C       -0.51740       2.08150       0.99370       -0.05510436
 C       -0.96900       2.72780       2.14070       -0.03446239
 C       -1.24750       1.99680       3.29140       -0.04254116
 C       -1.08400       0.60620       3.31320       0.01039828
 C       -1.43130       -0.11470       4.51980       -0.02727755
 C       -2.31650       -1.18800       4.62030       -0.00418110
 N       -2.40940       -1.59300       5.94370       -0.09671419
 C       -1.57510       -0.77860       6.70740       0.02100961
 C       -1.30870       -0.76800       8.09340       0.12605057
 O       -1.99350       -1.72240       8.78030       -0.28708697
 C       -1.79440       -1.76380       10.18640       0.03536903
 C       -0.42440       0.16160       8.59880       -0.07801633
 C       0.20400       1.08510       7.72860       -0.04232227
 C       -0.03970       1.09750       6.37260       -0.04734154
 C       -0.94470       0.16390       5.84070       -0.01601996
 C       -0.61110       -0.06320       2.17290       -0.01599719
 C       -0.39410       -1.50100       2.16830       0.00433945
 C       -0.95600       -2.35870       1.15150       -0.04541094
 C       -0.64300       -3.67170       1.32610       -0.02264524
 S       0.35480       -3.88170       2.73880       -0.04378274
 C       0.34580       -2.18470       3.09370       -0.02758363
 H       1.55420       -1.08860       0.53940       0.03534906
 H       1.43540       -0.74050       -1.22530       0.05830926
 H       2.01900       0.53640       -0.09250       0.03359133
 H       -0.30450       2.62920       0.08010       0.04532862
 H       -1.10730       3.80760       2.13600       0.03392398
 H       -1.60770       2.50170       4.18720       0.03929932
 H       -2.87630       -1.67410       3.83960       0.03578978
 H       -2.95790       -2.33870       6.30420       0.16988434
 H       -2.46200       -2.58080       10.49100       0.06018571
 H       -0.75400       -2.00630       10.42410       0.04439678
 H       -2.10010       -0.82180       10.65250       0.04426445
 H       -0.19350       0.20490       9.65680       0.03147562
 H       0.89960       1.80140       8.16340       0.02796122
 H       0.45150       1.80430       5.70940       0.03041127
 H       -1.55100       -1.95120       0.34540       0.04814265
 H       -0.93680       -4.50070       0.71110       0.04402069
 H       0.85320       -1.76660       3.94690       0.04281529
no frequencies
COc1cccc(c2c[nH]c3c(OC)cccc23)c1c1ccsc1
