32
a_1677.out 0.26709
 F       4.58170       -4.41080       -6.29100       -0.19427990
 C       5.05990       -3.48870       -7.12300       0.49633940
 F       6.11840       -4.06820       -7.69390       -0.21124876
 F       5.58130       -2.54670       -6.33830       -0.19995138
 C       4.05140       -2.96660       -8.08980       -0.02685543
 C       4.22260       -2.86720       -9.45340       -0.03212651
 S       2.81990       -2.19820       -10.21850       0.08217992
 C       1.99460       -2.04270       -8.73920       0.01419833
 C       2.78830       -2.49990       -7.67930       -0.04766398
 C       2.03600       -2.34000       -6.38460       0.24271707
 O       2.42370       -2.60370       -5.28770       -0.30338315
 C       0.73010       -1.75660       -6.82380       -0.04490015
 C       0.73480       -1.58950       -8.21840       0.00991235
 S       -0.73570       -0.93210       -8.75330       0.05718620
 C       -1.37600       -0.86520       -7.14710       -0.03479752
 C       -0.47510       -1.34450       -6.21700       0.01809846
 C       -0.73730       -1.41580       -4.77640       0.09849076
 C       -0.93100       -0.24540       -4.02740       -0.04577984
 C       -1.16700       -0.37320       -2.66010       -0.01111964
 C       -1.19830       -1.63910       -2.08500       -0.04266286
 C       -0.99330       -2.76450       -2.90610       0.10241633
 C       -1.00330       -4.11820       -2.33730       -0.03095574
 C       -0.29190       -5.12120       -2.85800       -0.06844412
 N       -0.77850       -2.64850       -4.23470       -0.22803806
 H       5.09550       -3.15330       -10.01870       0.07746668
 H       -2.36800       -0.50430       -6.93870       0.06139721
 H       -0.88820       0.72830       -4.50420       0.03286453
 H       -1.32490       0.51390       -2.04670       0.03664870
 H       -1.36820       -1.76380       -1.02020       0.03876840
 H       -1.62640       -4.24350       -1.45230       0.04049158
 H       -0.27940       -6.11990       -2.44910       0.04625102
 H       0.33160       -5.00490       -3.74030       0.06678009
no frequencies
FC(F)(F)c1csc2-c3c(C(=O)c12)c(cs3)c1cccc(C=C)n1
