36
s_21849.out 0.28573
 C       1.57130       -0.03290       0.07160       0.03390972
 O       0.15480       -0.09870       0.20320       -0.28455438
 C       -0.32460       0.09330       1.46640       0.34914006
 O       0.39230       0.31040       2.40800       -0.38546339
 C       -1.76930       -0.01310       1.43990       0.07778336
 C       -2.72270       -0.27100       0.47660       0.03586139
 N       -3.97180       -0.24960       1.09100       -0.26142239
 C       -3.75550       0.00980       2.38180       0.22101400
 O       -2.40840       0.17180       2.65820       -0.19001282
 C       -4.68990       0.16660       3.46570       -0.01732516
 C       -6.00860       0.53260       3.17200       -0.03063478
 C       -6.93590       0.71450       4.19550       0.01129329
 C       -6.55200       0.52760       5.53000       -0.02584670
 C       -5.25530       0.14610       5.84450       -0.06434712
 C       -4.32940       -0.04540       4.81310       0.15277259
 O       -3.05170       -0.44530       4.98010       -0.24685184
 C       -2.60950       -0.71700       6.30530       0.02753019
 C       -8.30030       1.11080       3.87340       -0.01120595
 C       -8.57320       2.38150       3.25040       -0.04884430
 C       -9.89830       2.59970       3.02620       -0.02015921
 S       -10.84360       1.24140       3.55190       -0.03548164
 C       -9.43020       0.36960       4.10600       0.05677574
 S       -9.43910       -1.25160       4.73930       -0.22587057
 H       2.04710       -0.79880       0.69350       0.06579829
 H       1.72310       -0.23220       -0.99570       0.07171766
 H       1.93120       0.96420       0.34820       0.06542320
 H       -2.62030       -0.46790       -0.57760       0.07078175
 H       -6.30870       0.66770       2.12580       0.06268496
 H       -7.28070       0.68630       6.32740       0.04604675
 H       -4.97410       -0.00250       6.88210       0.04854395
 H       -1.57280       -1.04320       6.12870       0.07699300
 H       -2.62500       0.19060       6.91640       0.05143228
 H       -3.19390       -1.52370       6.75750       0.04941263
 H       -7.77580       3.07140       3.00880       0.04510960
 H       -10.35040       3.47150       2.58640       0.05328301
 H       -10.50800       -1.20560       5.54770       0.17471283
no frequencies
COC(=O)c1cnc(o1)c1cc(ccc1OC)c1ccsc1S
