94
m_30245.out 0.27371
 C       -2.38980       1.65680       -7.22530       -0.10193725
 C       -1.05170       2.27000       -6.81170       -0.03459954
 C       -0.92780       3.71500       -7.28550       -0.10635766
 C       -0.91730       2.14700       -5.31190       0.35853483
 O       -1.13720       1.14850       -4.66410       -0.44450240
 O       -0.46120       3.28400       -4.75820       -0.26506031
 C       -0.18090       3.30390       -3.35290       0.07596188
 C       1.34280       3.34700       -3.20840       -0.05449519
 C       1.92640       2.19220       -2.46970       0.01863763
 S       1.57170       2.25860       -0.73040       -0.09410015
 S       0.70550       0.52550       -0.18100       -0.09320538
 C       -0.82620       0.38550       -1.06080       0.02635146
 C       -0.85890       -0.68370       -2.09660       -0.06628861
 C       -1.66790       -1.89460       -1.62340       0.07770948
 O       -0.82830       -2.75750       -0.85750       -0.27271798
 C       -0.71230       -2.52150       0.47070       0.35793073
 O       -1.35030       -1.67360       1.04060       -0.40812681
 C       0.27290       -3.49750       1.07530       -0.03168617
 C       0.36500       -3.24180       2.57880       -0.10571479
 C       1.63480       -3.33580       0.39940       -0.10359903
 C       -1.88860       1.17010       -0.79210       0.07643324
 C       -3.15020       1.17770       -1.58760       -0.10998572
 N       -1.85940       2.09080       0.30620       -0.09744733
 C       -2.09960       1.53510       1.64990       -0.00004258
 C       -3.46420       0.93600       1.80260       -0.04338527
 C       -4.68200       1.59010       1.48950       0.16653034
 N       -4.76390       2.88390       1.01090       -0.26938312
 N       -5.89010       0.98290       1.69660       -0.30208614
 C       -5.89760       -0.25650       2.23020       0.18282046
 C       -7.21660       -0.90880       2.47420       -0.11498580
 N       -4.77170       -0.94930       2.55160       -0.27466182
 C       -3.58440       -0.35710       2.33260       0.06326615
 C       -1.64560       3.44320       0.10450       0.24386835
 O       -1.71130       3.91140       -1.01350       -0.42600411
 C       2.69370       1.23230       -3.02080       0.05117196
 C       3.40590       0.14570       -2.28610       -0.10681172
 N       2.88940       1.15880       -4.44290       -0.09975541
 C       4.14650       1.70350       -4.98710       0.00833077
 C       4.17040       3.19400       -4.99400       -0.05491948
 C       4.74750       3.90840       -3.94000       0.06296383
 N       4.78580       5.25140       -3.90520       -0.28211547
 C       4.23580       5.92870       -4.95460       0.18526973
 C       4.26660       7.41940       -4.90830       -0.11533026
 N       3.65680       5.33920       -6.01760       -0.30198097
 C       3.61760       3.96730       -6.05340       0.16779906
 N       3.05600       3.41620       -7.16850       -0.26597710
 C       1.85890       0.75870       -5.26380       0.24107090
 O       1.94830       0.87780       -6.47620       -0.43372216
 H       -3.23880       2.25030       -6.86660       0.04126887
 H       -2.47120       1.58790       -8.31570       0.04567483
 H       -2.50470       0.64100       -6.82000       0.05094571
 H       -0.21110       1.66060       -7.25510       0.07914596
 H       0.04770       4.14520       -7.01970       0.04612902
 H       -1.04200       3.78790       -8.37240       0.04433678
 H       -1.68850       4.35930       -6.82630       0.04638866
 H       -0.66670       2.46040       -2.83340       0.06517045
 H       -0.66600       4.24690       -3.02640       0.08771709
 H       1.63940       4.30590       -2.71980       0.06173782
 H       1.78750       3.44160       -4.22810       0.05088918
 H       0.15520       -1.02330       -2.39830       0.05634835
 H       -1.29780       -0.29100       -3.04880       0.08707837
 H       -2.56210       -1.61030       -1.04110       0.05850290
 H       -1.95740       -2.55380       -2.46430       0.06213111
 H       -0.11000       -4.53520       0.89230       0.05942665
 H       1.01790       -3.97190       3.06780       0.04347521
 H       0.76360       -2.24040       2.79140       0.04950081
 H       -0.62300       -3.29760       3.05720       0.04888472
 H       2.35180       -4.07400       0.77570       0.04808210
 H       2.06390       -2.34180       0.58010       0.04666254
 H       1.56130       -3.46820       -0.68870       0.04666498
 H       -3.94310       0.60060       -1.08960       0.05659608
 H       -3.52320       2.20390       -1.74130       0.06738732
 H       -3.01230       0.75650       -2.59810       0.06214867
 H       -1.32140       0.75340       1.86450       0.07173920
 H       -1.95110       2.33960       2.41010       0.04959146
 H       -5.67570       3.23200       0.76110       0.18555646
 H       -4.00110       3.22370       0.45930       0.17706660
 H       -8.02130       -0.44130       1.88520       0.05889598
 H       -7.18180       -1.98290       2.22910       0.06178806
 H       -7.49530       -0.82990       3.53800       0.06430677
 H       -2.69940       -0.95810       2.60220       0.06773146
 H       -1.45210       4.04790       1.00170       0.01913635
 H       3.87210       0.50050       -1.35410       0.06199471
 H       4.20990       -0.30810       -2.88500       0.05175655
 H       2.72380       -0.67890       -2.02080       0.06240879
 H       4.29210       1.29200       -6.01980       0.06650775
 H       4.99430       1.29940       -4.38080       0.04746137
 H       5.19770       3.39820       -3.07740       0.03189423
 H       5.30470       7.78930       -4.91870       0.06467816
 H       3.80370       7.79270       -3.98000       0.06389957
 H       3.73590       7.86770       -5.76320       0.05986983
 H       2.63130       4.01720       -7.85150       0.18645098
 H       2.75230       2.44800       -7.13950       0.21634138
 H       0.98720       0.28780       -4.77770       0.03496512
no frequencies
CC(C)C(=O)OCC/C(=C(/C)\N(Cc1cnc(C)nc1N)C=O)/SS/C(=C(/C)\N(Cc1c(N)nc(C)nc1)C=O)/CCOC(=O)C(C)C
