20
c_180.out 0.28981
 H       2.02660       -1.16390       0.64430       0.04691941
 C       1.08530       -0.81040       0.25300       -0.08335275
 H       0.35330       -1.60150       0.17530       0.04006897
 C       0.82320       0.45290       -0.09690       -0.02690874
 H       -0.16890       0.72670       -0.47890       0.04403829
 C       1.74900       1.55540       -0.01240       0.02743286
 S       3.48530       1.35980       0.09550       -0.02405823
 C       3.75870       3.06210       0.14280       -0.02753338
 H       4.74490       3.48750       0.20870       0.04663765
 C       2.57410       3.75270       0.07420       -0.00416960
 C       1.42860       2.88780       -0.01550       -0.05576789
 H       0.42090       3.27430       -0.06220       0.04138547
 C       2.48250       5.18650       0.09950       0.02346928
 S       1.46880       6.07820       -1.01590       -0.03794048
 C       1.94850       7.60640       -0.34450       -0.02118815
 H       1.56850       8.53760       -0.72290       0.04407145
 C       2.83570       7.42920       0.67590       -0.04571184
 H       3.27670       8.22510       1.25700       0.03462262
 C       3.14570       6.05120       0.92780       -0.05544477
 H       3.83210       5.75010       1.70520       0.03342981
no frequencies
C=Cc1scc(c1)c1sccc1
