30
s_41869.out 0.25581
 N       2.90180       0.95930       -3.64480       -0.27850474
 C       2.68950       0.98370       -2.26560       0.07927441
 C       1.63770       0.18770       -1.72010       -0.05556524
 C       1.35920       0.24720       -0.37590       0.01229524
 C       0.28030       -0.56180       0.15560       0.00738009
 S       -1.38230       -0.27950       -0.31410       -0.02306355
 C       -1.99660       -1.59270       0.66740       0.13901886
 F       -3.26870       -1.90310       0.72540       -0.19840413
 C       -0.97940       -2.21060       1.33080       0.00825575
 N       -0.72570       -3.24360       2.22950       -0.12465638
 C       0.67320       -3.25030       2.44540       0.10458316
 N       1.31070       -2.30820       1.76270       -0.25041324
 C       0.34160       -1.60740       1.03340       0.04617388
 C       2.12060       1.08980       0.49320       0.00417485
 C       1.87480       1.16280       1.89030       -0.02898366
 C       2.63230       1.97440       2.69560       -0.03320367
 C       3.67490       2.75550       2.14000       -0.02955909
 C       3.93130       2.71020       0.79460       -0.03828662
 C       3.16040       1.87240       -0.06090       0.01554981
 C       3.43580       1.81370       -1.44780       -0.07211199
 H       2.56160       0.17930       -4.16490       0.16060174
 H       3.74290       1.36390       -3.99990       0.15973486
 H       1.07310       -0.46300       -2.38370       0.03278810
 H       -1.40460       -3.86240       2.60530       0.16789493
 H       1.13630       -3.96540       3.11300       0.05256441
 H       1.08020       0.55050       2.31780       0.02943774
 H       2.44680       2.02520       3.76530       0.02741180
 H       4.26700       3.38720       2.79970       0.02717831
 H       4.72710       3.30700       0.35620       0.02876151
 H       4.23250       2.42740       -1.85270       0.02967288
no frequencies
Nc1cc(c2sc(F)c3[nH]cnc23)c2ccccc2c1
