41
s_26830.out 0.25225
 C       0.08980       -1.16460       -0.21890       0.03440753
 O       -0.17750       0.22780       -0.11640       -0.27554979
 C       -0.45470       0.71720       1.11690       0.13643041
 C       -0.62160       -0.04030       2.26320       -0.09182147
 C       -0.92360       0.67350       3.43240       0.04243848
 N       -1.13690       0.20940       4.72430       -0.11353142
 C       -1.41310       1.31340       5.55150       -0.00362918
 C       -1.38070       2.47080       4.80080       -0.06734749
 C       -1.06920       2.09880       3.44860       -0.01836969
 C       -0.89250       2.82190       2.26580       -0.03842571
 C       -0.57820       2.13970       1.10580       -0.01769332
 C       -0.35870       2.85160       -0.15270       0.01585209
 C       -1.42090       3.36890       -0.89230       -0.00023471
 C       -2.83320       3.29660       -0.56390       -0.04370798
 C       -3.63350       3.87830       -1.48260       -0.00803742
 S       -2.71160       4.56540       -2.82060       -0.06968785
 C       -1.18060       4.04180       -2.12110       0.03145453
 C       0.09010       4.21110       -2.63570       -0.04522157
 C       1.15680       3.68960       -1.89660       -0.00145524
 C       2.55830       3.72760       -2.24260       -0.04689748
 C       3.35790       3.12940       -1.31950       -0.00187518
 S       2.43770       2.49710       0.03910       -0.00753988
 C       0.92530       3.02580       -0.66700       0.02553149
 C       4.81740       2.97370       -1.36120       0.23696055
 C       5.50000       3.26420       -2.66730       -0.13195009
 O       5.45000       2.61900       -0.39500       -0.36114383
 H       -0.79330       -1.75210       0.04720       0.04299425
 H       0.31680       -1.27340       -1.28880       0.06216218
 H       0.95870       -1.44150       0.38720       0.04663620
 H       -0.53300       -1.11560       2.27380       0.03272861
 H       -1.09370       -0.73610       5.01870       0.15829462
 H       -1.60660       1.17670       6.59750       0.03472785
 H       -1.55030       3.47010       5.13910       0.03499586
 H       -0.99320       3.90770       2.26620       0.03569704
 H       -3.16010       2.80370       0.34310       0.04375836
 H       -4.70690       3.95040       -1.46930       0.04923014
 H       0.27250       4.72430       -3.57720       0.04475588
 H       2.89390       4.19470       -3.15750       0.04635923
 H       6.57350       3.02440       -2.61330       0.06697633
 H       5.07170       2.67490       -3.48830       0.05901690
 H       5.41670       4.32590       -2.93410       0.06271078
no frequencies
COc1cc2[nH]ccc2cc1c1c2ccsc2cc2cc(sc12)C(=O)C
