40
s_10956.out 0.2496
 C       1.56820       -0.26810       -0.08980       -0.03091304
 N       0.13600       0.05000       -0.00130       -0.18741092
 C       -0.34990       0.51520       1.22410       0.05375501
 C       0.44410       1.19690       2.15440       -0.06601712
 C       -0.12390       1.70310       3.32670       0.00540700
 C       -1.48720       1.55730       3.58630       -0.04979990
 C       -2.29620       0.88830       2.66820       -0.05060676
 C       -1.73120       0.37410       1.51200       0.11116499
 O       -2.48840       -0.40110       0.66180       -0.31948620
 C       -3.22200       0.37610       -0.28150       0.03906472
 C       0.74030       2.37080       4.29460       -0.00043628
 C       0.45570       3.68070       4.81110       -0.04712427
 C       1.40310       4.13480       5.68180       -0.01799782
 S       2.66570       2.96880       5.89380       0.00095411
 C       1.91030       1.84220       4.79160       0.01256277
 C       2.49410       0.57750       4.51010       -0.00182779
 S       1.62120       -0.92450       4.77940       0.03011003
 C       2.93810       -1.91490       4.18540       0.02771250
 S       2.84890       -3.63960       4.09830       -0.13866506
 C       3.97780       -1.10330       3.82090       0.08325241
 O       5.15020       -1.59090       3.32390       -0.22423689
 C       6.12980       -0.66890       3.02840       0.32380380
 O       7.16430       -1.11610       2.63340       -0.30298231
 C       5.85700       0.81710       3.20200       0.32393352
 O       6.65680       1.66420       2.93660       -0.30030414
 O       4.64290       1.25160       3.68010       -0.20896524
 C       3.73300       0.28980       4.00120       0.09468805
 H       1.78540       -0.69170       -1.08490       0.04757517
 H       2.16470       0.65760       0.01050       0.04819601
 H       1.90340       -0.98500       0.67820       0.02643550
 H       -0.46560       -0.63480       -0.45460       0.16800982
 H       1.50470       1.34830       1.96690       0.02994738
 H       -1.91500       1.95150       4.50390       0.03664478
 H       -3.35930       0.75130       2.85780       0.04623230
 H       -3.74420       -0.38750       -0.87020       0.05949163
 H       -3.93720       1.02800       0.22910       0.03833047
 H       -2.54360       0.96150       -0.91060       0.03726005
 H       -0.42490       4.22790       4.50670       0.04949555
 H       1.41470       5.08320       6.18950       0.05848489
 H       4.08630       -3.90470       3.64580       0.19426125
no frequencies
CNc1cc(ccc1OC)c1ccsc1c1sc(S)c2oc(=O)c(=O)oc12
