21
P_C89938900.out 0.2474
 Br       1.79270       0.00700       0.00000       -0.11493004
 C       -0.06730       0.00350       -0.00010       0.08226035
 C       -0.85480       -1.11200       0.00020       -0.05724854
 C       -2.23440       -0.76420       -0.00010       0.00905338
 S       -3.72120       -1.66530       0.00000       -0.02964004
 C       -4.65650       -0.20280       -0.00020       0.00573616
 C       -6.06040       0.08460       0.00020       0.00086019
 C       -7.13780       -0.80420       -0.00020       -0.03091309
 C       -8.42890       -0.29250       0.00010       -0.03069531
 C       -8.65420       1.09050       0.00010       -0.02874463
 C       -7.59160       1.98850       -0.00010       -0.03319041
 C       -6.29830       1.48110       -0.00010       0.03467102
 S       -4.78360       2.39990       0.00000       -0.06168329
 C       -3.84640       0.93110       0.00010       0.01421223
 C       -2.47310       0.61920       0.00000       0.00301416
 S       -0.98770       1.49930       0.00000       -0.00130646
 H       -0.50180       -2.13520       0.00000       0.06541032
 H       -6.96660       -1.87880       0.00010       0.04413299
 H       -9.28010       -0.97170       0.00000       0.04056782
 H       -9.67700       1.46450       0.00000       0.04244425
 H       -7.78170       3.06100       0.00000       0.04598892
no frequencies
Brc1cc2sc3c4ccccc4sc3c2s1
