40
a_10138.out 0.25868
 C       -8.92070       3.59610       0.08700       -0.13796042
 C       -8.18120       4.30220       1.17380       0.25069695
 O       -8.72290       4.74820       2.15440       -0.35041586
 C       -6.71750       4.46760       0.98530       -0.00913754
 C       -6.07410       5.67940       1.12370       -0.02537713
 S       -4.37010       5.53240       0.85990       0.06241770
 C       -4.48490       3.86420       0.57330       0.01031694
 C       -5.81760       3.43150       0.67190       -0.05367281
 C       -5.87150       1.95390       0.42870       0.23931558
 O       -6.83590       1.24530       0.41770       -0.33999606
 C       -4.44520       1.58320       0.18870       -0.05781155
 C       -3.64680       2.73690       0.27090       0.01135546
 S       -2.02090       2.36670       -0.02360       0.06110776
 C       -2.36440       0.69370       -0.25970       -0.04160690
 C       -3.71410       0.41380       -0.11610       0.01367208
 C       -4.28610       -0.89390       -0.28710       0.01705785
 S       -5.23250       -1.66640       0.94540       0.03069018
 C       -5.46280       -3.08830       -0.01070       -0.02309924
 C       -4.84220       -2.97000       -1.22180       -0.04925228
 C       -4.16610       -1.71590       -1.38640       -0.01407359
 C       -3.43920       -1.36870       -2.59950       0.02933850
 C       -3.69450       -0.15010       -3.24180       -0.02966309
 C       -2.97020       0.20980       -4.37070       -0.02035157
 C       -1.99440       -0.66570       -4.85740       0.00329521
 C       -1.74570       -1.89600       -4.24200       -0.02034908
 C       -2.47320       -2.24390       -3.11040       -0.02982416
 N       -1.22000       -0.28720       -6.02710       0.53324904
 O       -1.45610       0.78860       -6.55470       -0.38686534
 O       -0.36290       -1.05900       -6.42850       -0.38625571
 H       -10.00850       3.72210       0.18850       0.06869946
 H       -8.62570       3.94410       -0.91090       0.05773730
 H       -8.71880       2.50830       0.12050       0.10280104
 H       -6.54230       6.61670       1.37950       0.07038263
 H       -1.59810       -0.02570       -0.49350       0.05407033
 H       -6.03370       -3.92970       0.34220       0.05755711
 H       -4.85030       -3.71870       -2.00030       0.04477983
 H       -4.46540       0.51460       -2.84740       0.04803245
 H       -3.15630       1.16470       -4.87260       0.07662592
 H       -0.98550       -2.57210       -4.64630       0.07834754
 H       -2.28720       -3.19460       -2.61090       0.05416545
no frequencies
CC(=O)c1csc2-c3c(C(=O)c12)c(cs3)c1sccc1c1ccc(cc1)N(=O)=O
