28
h_4917.out 0.27683
 F       -0.63740       -1.15480       0.08770       -0.21387612
 C       0.01140       -0.00070       0.04280       0.17178781
 C       -0.73040       1.17530       -0.06040       -0.04950574
 C       -0.03930       2.38210       -0.10810       -0.03231337
 C       1.35840       2.39840       -0.04870       0.00931513
 C       2.07420       1.20090       0.05640       -0.03437415
 C       1.40420       -0.01780       0.10030       -0.04931640
 C       2.07350       3.66660       -0.09720       -0.00094055
 C       2.99530       4.07950       0.82850       -0.02557796
 S       3.62660       5.63480       0.42460       -0.00600527
 C       2.64000       5.74240       -1.01790       0.01864151
 C       1.86890       4.61900       -1.15290       -0.05176574
 C       2.69720       6.87610       -1.87850       0.01041711
 S       3.22040       6.71370       -3.54580       0.01561993
 C       3.01170       8.40400       -3.87330       -0.03554189
 C       2.57140       9.04870       -2.75760       0.02608616
 S       2.21600       10.74540       -2.54550       -0.06202838
 C       1.72200       10.60970       -0.78560       0.26691731
 O       1.38140       11.53780       -0.13320       -0.30162627
 S       1.80880       8.89750       -0.14040       -0.05723485
 C       2.38880       8.18250       -1.62140       0.01858844
 H       -1.81780       1.15530       -0.10200       0.05893384
 H       -0.58780       3.32180       -0.18440       0.04561057
 H       3.16320       1.22590       0.09700       0.04411863
 H       1.95500       -0.95330       0.17680       0.05884048
 H       3.30330       3.54180       1.70890       0.05531668
 H       1.16670       4.43890       -1.95490       0.04700427
 H       3.21680       8.82580       -4.84450       0.07290884
no frequencies
Fc1ccc(cc1)c1csc(c1)c1scc2sc(=O)sc12
