36
m_19443.out 0.29822
 C       1.37730       0.13170       -0.33310       0.03902869
 O       -0.02320       0.27200       -0.12090       -0.31181146
 C       -0.32040       0.84960       1.09370       0.13298856
 C       -0.33120       2.26610       1.17180       -0.04886717
 C       -0.73750       2.89150       2.32780       -0.04740275
 C       -1.13330       2.07200       3.40250       0.04383732
 N       -1.58490       2.42930       4.66430       -0.10921033
 C       -1.85710       1.25460       5.37540       -0.01115136
 C       -1.58260       0.14340       4.58420       -0.00872904
 C       -1.72560       -1.28440       4.92240       -0.06015496
 C       -2.94860       -1.88020       4.18200       0.00676101
 N       -2.93780       -3.34060       4.27110       -0.19331196
 C       -3.76280       -3.99370       5.17120       0.27935531
 C       -3.61370       -5.49050       5.21990       -0.13863210
 O       -4.56090       -3.37950       5.84540       -0.41722893
 C       -1.11950       0.64220       3.32020       -0.01650048
 C       -0.69710       0.02580       2.13430       -0.05221191
 C       -2.35420       1.28250       6.77700       0.48996053
 F       -2.60080       2.50380       7.25760       -0.21080411
 F       -3.49330       0.61870       6.96050       -0.19929691
 F       -1.50260       0.75190       7.65550       -0.20741829
 H       1.80680       -0.55460       0.40280       0.03539721
 H       1.42570       -0.29860       -1.34100       0.06350391
 H       1.87990       1.10260       -0.30300       0.03696958
 H       -0.02470       2.83730       0.29660       0.05346458
 H       -0.75770       3.97320       2.41620       0.04345691
 H       -1.70460       3.35780       5.00060       0.18345143
 H       -1.84280       -1.45480       6.01330       0.05478408
 H       -0.80370       -1.83860       4.64530       0.04788222
 H       -2.94120       -1.57910       3.11040       0.04498321
 H       -3.89250       -1.47830       4.62600       0.08127868
 H       -2.23900       -3.82660       3.74250       0.16312667
 H       -4.24150       -5.90200       6.02810       0.06966128
 H       -2.58290       -5.80440       5.41810       0.05210742
 H       -3.94700       -5.96100       4.28570       0.05808931
 H       -0.67520       -1.05540       2.03670       0.05264384
no frequencies
COc1ccc2[nH]c(c(CCNC(=O)C)c2c1)C(F)(F)F
