44
s_25283.out 0.27099
 C       2.21160       -0.19020       0.41210       0.03444340
 O       0.98120       0.45290       0.08150       -0.28840371
 C       0.17500       0.73900       1.14210       0.12102471
 C       -0.28690       -0.30880       2.03980       0.11588340
 O       0.20540       -1.51060       1.66780       -0.26541252
 C       0.17080       -2.58560       2.59840       0.03261303
 C       -1.20570       -0.02940       3.01400       -0.03875331
 C       -1.75210       -0.98640       3.99420       0.10251151
 N       -1.00100       -1.16780       5.07750       -0.25519153
 C       -1.48510       -1.91880       6.11250       0.05024671
 C       -2.74340       -2.47100       6.09970       -0.05050142
 C       -3.56070       -2.30450       4.94790       0.03192471
 C       -4.87000       -2.82930       4.90090       -0.06797262
 C       -5.63000       -2.62760       3.76160       0.05853756
 N       -5.15910       -2.00180       2.66180       -0.27998492
 C       -3.88750       -1.52010       2.66840       0.15965542
 N       -3.49790       -1.00420       1.46700       -0.25058112
 C       -3.04020       -1.58560       3.83650       -0.04044400
 C       -1.68510       1.31530       3.16070       -0.01100087
 C       -2.58630       1.79680       4.09410       -0.03627211
 S       -2.83860       3.46500       3.87390       0.04523276
 C       -1.77690       3.58620       2.55100       -0.03458521
 C       -1.22000       2.35180       2.26620       -0.00791592
 C       -0.27870       2.02060       1.24860       -0.04570651
 C       0.19480       3.09570       0.33380       0.25489879
 C       -0.18830       2.94930       -1.10600       -0.13773934
 O       0.82140       4.03900       0.74510       -0.35233961
 H       2.05430       -1.27380       0.45150       0.06066444
 H       2.85330       0.08140       -0.43590       0.05942822
 H       2.63240       0.18240       1.35010       0.04280235
 H       0.77840       -3.34510       2.08930       0.06305045
 H       0.62580       -2.29930       3.55460       0.06038380
 H       -0.85330       -2.94580       2.73290       0.04172168
 H       -0.79390       -2.02360       6.95740       0.03672837
 H       -3.12720       -3.02990       6.94770       0.03505706
 H       -5.26810       -3.37190       5.74910       0.02984070
 H       -6.66720       -2.98150       3.67730       0.03526374
 H       -4.15060       -0.98350       0.70310       0.19340434
 H       -2.57170       -0.67460       1.30290       0.17994922
 H       -3.06330       1.21950       4.86650       0.04618552
 H       -1.55660       4.50720       2.03760       0.06007416
 H       0.24200       3.75280       -1.72090       0.06543145
 H       -1.27900       2.97400       -1.23260       0.06299737
 H       0.16570       1.99000       -1.51670       0.08284986
no frequencies
COc1c(OC)c(c2nccc3ccnc(N)c23)c2cscc2c1C(=O)C
