35
s_26557.out 0.25276
 C       0.61160       -0.99240       -0.11150       0.02698159
 O       0.25780       0.38040       0.00990       -0.25397663
 C       -0.12610       0.81530       1.23040       0.14245974
 C       -0.13280       0.05430       2.39730       -0.09157320
 C       -0.55290       0.68790       3.56730       0.16854447
 F       -0.56460       -0.01770       4.68650       -0.20619532
 C       -0.95550       2.01720       3.61650       -0.07538351
 C       -0.93530       2.75750       2.42590       -0.00095221
 C       -1.30340       4.16030       2.45410       0.00889630
 S       -0.07550       5.34790       2.57850       0.05311036
 C       -1.14140       6.65730       2.49340       -0.03841779
 C       -2.44250       6.20620       2.36510       -0.00483429
 C       -3.65070       6.96380       2.23460       0.04164600
 N       -4.82360       6.36800       2.10240       -0.13134718
 N       -4.93400       5.04880       2.10140       -0.15700403
 C       -3.88200       4.24520       2.22320       0.12339558
 S       -4.34480       2.54070       2.20360       -0.18691908
 C       -2.54910       4.76170       2.35130       -0.01758205
 C       -0.53100       2.17140       1.22580       -0.01762377
 C       -0.49980       2.91270       -0.02600       0.00254025
 C       0.74180       3.21970       -0.69060       -0.04469528
 C       0.56640       3.91730       -1.84840       -0.02162002
 S       -1.12130       4.19900       -2.14230       -0.00954188
 C       -1.59770       3.37610       -0.69840       -0.02660003
 H       -0.23870       -1.63810       0.13040       0.05263929
 H       0.85800       -1.06680       -1.18070       0.07276071
 H       1.48750       -1.22930       0.49930       0.05184627
 H       0.18220       -0.98440       2.40680       0.06625907
 H       -1.27160       2.48140       4.54990       0.06229717
 H       -0.83640       7.69030       2.53110       0.05750396
 H       -3.63160       8.05720       2.23730       0.04293020
 H       -3.15880       1.96730       2.44580       0.17062052
 H       1.69080       2.90590       -0.28470       0.04057973
 H       1.32780       4.26400       -2.52130       0.05108488
 H       -2.62990       3.26350       -0.41480       0.04817018
no frequencies
COc1cc(F)cc(c2scc3cnnc(S)c23)c1c1ccsc1
