19
h_605.out 0.2819
 C       1.49510       1.11670       0.03240       -0.08316684
 C       1.03900       -0.12510       0.22390       -0.02713411
 C       1.78760       -1.33950       0.01660       0.02635383
 C       1.30120       -2.61400       0.15800       -0.05494335
 C       2.27760       -3.63210       -0.10990       -0.00571743
 C       3.50510       -3.11310       -0.45480       -0.01822639
 S       3.47310       -1.39550       -0.45220       0.00391547
 C       2.01800       -5.04540       -0.02800       0.10970997
 N       2.91300       -5.98640       -0.25890       -0.24866057
 C       2.38800       -7.26770       -0.10970       0.03198123
 C       1.06720       -7.32920       0.24300       -0.02396203
 S       0.42180       -5.72780       0.40190       -0.05434710
 H       0.88800       1.99340       0.20660       0.04260162
 H       2.48620       1.37080       -0.30750       0.04892716
 H       0.00820       -0.28620       0.56870       0.04591277
 H       0.28380       -2.83810       0.44350       0.04674905
 H       4.38630       -3.69260       -0.69800       0.06773206
 H       3.06080       -8.10110       -0.28450       0.04508158
 H       0.47540       -8.20980       0.40840       0.04719307
no frequencies
C=Cc1cc(cs1)c1nccs1
