40
s_25446.out 0.25658
 C       -0.26820       0.04030       -1.00610       0.02608180
 O       -0.23950       -0.37180       0.35890       -0.23719570
 C       -0.44510       0.54580       1.30470       0.15336912
 C       -0.36960       0.12040       2.62360       -0.07805935
 S       -0.65420       1.42890       3.70910       0.07689694
 C       -0.91170       2.54200       2.43190       0.02749262
 C       -0.75530       1.94440       1.18790       -0.03086865
 C       -0.91410       2.65320       -0.01630       0.11371400
 N       -1.06200       3.26540       -0.98890       -0.22752866
 C       -1.27280       3.92870       2.66670       0.01017581
 C       -0.27310       4.90070       2.70370       -0.02365497
 C       -0.63460       6.23490       2.89390       0.00738275
 C       -1.97210       6.61750       3.03110       -0.01712219
 C       -2.96100       5.64160       2.99390       -0.02041625
 C       -2.62160       4.29570       2.82400       0.03146118
 C       -3.66950       3.28090       2.79800       -0.01518429
 C       -3.96170       2.52220       1.69340       -0.03326680
 S       -5.23280       1.41050       2.03060       0.02364517
 C       -5.39090       1.95420       3.66300       -0.03075187
 C       -4.50530       2.96390       3.92500       0.03361535
 S       -4.52310       3.82870       5.45470       -0.16774152
 C       -2.82120       3.67550       6.08300       -0.04999967
 N       0.40670       7.25290       2.94210       0.53884083
 O       0.06770       8.41300       3.10540       -0.37367433
 O       1.56610       6.89350       2.82300       -0.37742084
 C       -0.12070       -1.26250       3.05920       0.50172597
 F       -1.19040       -1.86150       3.59100       -0.20788049
 F       0.27120       -2.08620       2.08840       -0.19266024
 F       0.81830       -1.38730       4.00070       -0.20589869
 H       0.50670       0.78690       -1.20970       0.06389674
 H       -0.03510       -0.90410       -1.52300       0.08803466
 H       -1.26460       0.39410       -1.28920       0.06267005
 H       0.78180       4.62400       2.57880       0.08231083
 H       -2.23460       7.67350       3.16570       0.09038421
 H       -4.01230       5.92500       3.09430       0.07294908
 H       -3.48980       2.59110       0.72620       0.05273010
 H       -6.10730       1.52030       4.34360       0.07058541
 H       -2.77880       4.19410       7.05020       0.06619910
 H       -2.53860       2.63110       6.24960       0.05290613
 H       -2.08770       4.14150       5.41810       0.04225670
no frequencies
COc1c(sc(c1C#N)c1cc(ccc1c1cscc1SC)N(=O)=O)C(F)(F)F
