33
m_29156.out 0.26415
 H       -5.62020       4.21440       3.92430       0.19087728
 S       -5.74220       3.28930       2.95220       -0.27639979
 C       -7.30320       3.77390       2.26720       0.04568804
 C       -8.32880       2.82500       2.28650       -0.04431185
 C       -9.56420       3.12270       1.73140       0.03074762
 C       -9.81290       4.39540       1.17740       0.05564888
 C       -8.77970       5.34470       1.17660       -0.06974707
 C       -7.52390       5.02740       1.69710       0.00607107
 C       -6.45430       6.07610       1.61250       -0.08201650
 C       -6.37390       6.82690       2.90660       0.37016991
 O       -6.74000       8.11970       2.71970       -0.38240521
 O       -6.03490       6.43270       3.99150       -0.40615967
 N       -11.06060       4.67010       0.59220       -0.08337638
 C       -11.17250       5.86440       -0.25420       -0.04056376
 C       -12.23990       4.17830       1.19620       0.05621150
 C       -13.41050       4.95140       1.24370       -0.05588093
 C       -14.57860       4.40880       1.77110       -0.03373017
 C       -14.59680       3.10820       2.26800       -0.03811662
 C       -13.43070       2.34410       2.25290       -0.03757377
 C       -12.26090       2.87290       1.72080       0.03560124
 S       -10.80800       1.87310       1.68830       -0.12910527
 H       -8.15380       1.84130       2.74150       0.06198705
 H       -8.94890       6.34550       0.78500       0.04684756
 H       -6.65050       6.77580       0.76430       0.06749485
 H       -5.45770       5.63000       1.37420       0.08315668
 H       -6.71780       8.66460       3.54600       0.32442628
 H       -10.30630       5.91300       -0.94170       0.05386061
 H       -12.07180       5.78510       -0.89380       0.05582078
 H       -11.22640       6.80190       0.32540       0.03944148
 H       -13.41660       5.97670       0.88490       0.03792066
 H       -15.48500       5.01380       1.79940       0.03464642
 H       -15.51510       2.68980       2.67350       0.03749584
 H       -13.45250       1.33080       2.66150       0.04527323
no frequencies
Sc1cc2c(cc1CC(=O)O)N(C)c1ccccc1S2
