25
a_347.out 0.26103
 O       1.25240       -0.71890       -0.09320       -0.33977670
 C       0.25420       -0.05510       0.06360       0.20696285
 C       0.27740       1.41040       -0.01930       -0.03037966
 C       1.51030       2.13970       -0.07710       -0.03426986
 C       1.33110       3.49150       -0.12150       -0.02329322
 S       -0.35540       3.88990       -0.09120       0.04062272
 C       -0.83310       2.22230       -0.02630       0.02645174
 C       -2.21840       1.83630       0.00000       0.01143810
 C       -2.83680       1.07480       -0.97650       -0.03929612
 S       -4.50690       0.80250       -0.62440       0.05200547
 C       -4.42200       1.68700       0.81990       0.01320099
 C       -3.12540       2.18510       1.02570       -0.05680393
 C       -3.08680       2.94180       2.31790       0.23809155
 O       -2.15640       3.49230       2.82910       -0.33054981
 C       -4.49140       2.83980       2.82290       -0.05015536
 C       -5.25810       2.09040       1.91680       0.01138683
 S       -6.85920       1.95320       2.46180       0.04446114
 C       -6.52910       2.88520       3.89060       -0.02968251
 C       -5.21480       3.29110       3.94420       -0.02812063
 H       -0.70860       -0.53790       0.28010       0.01146431
 H       2.46420       1.62450       -0.08320       0.06827643
 H       2.09440       4.24720       -0.16440       0.06005732
 H       -2.36920       0.69130       -1.86680       0.05779113
 H       -7.29230       3.09410       4.61800       0.05851463
 H       -4.77400       3.88180       4.73670       0.06160261
no frequencies
O=Cc1ccsc1c1csc2-c3c(C(=O)c12)ccs3
