17
h_7671.out 0.28359
 O       0.95680       0.51750       -0.11500       -0.33913278
 C       -0.05110       -0.12640       -0.28930       0.20482057
 C       -1.38290       0.43180       -0.03140       -0.02261545
 C       -1.60740       1.72310       0.38880       -0.00858882
 S       -3.28060       2.02640       0.57800       0.07905359
 C       -3.71130       0.40100       0.09200       0.01407631
 C       -2.58100       -0.32490       -0.19920       -0.04990592
 C       -5.07610       -0.00880       0.03800       0.10558760
 N       -6.10180       0.76040       0.35470       -0.23682332
 C       -7.32030       0.10630       0.20600       0.03338249
 C       -7.24590       -1.18970       -0.23060       -0.02185637
 S       -5.59080       -1.63980       -0.47680       -0.03553772
 H       0.00120       -1.16180       -0.65220       0.02707164
 H       -0.83660       2.45940       0.57950       0.08615265
 H       -2.56610       -1.35730       -0.52130       0.05566704
 H       -8.21760       0.66840       0.44650       0.05332644
 H       -8.06070       -1.86700       -0.40990       0.05532206
no frequencies
O=Cc1csc(c1)c1nccs1
