33
s_42226.out 0.26783
 N       3.06700       1.33800       5.04270       -0.27854360
 C       3.29650       2.16690       3.96880       0.18236002
 C       2.52240       2.67350       2.95360       -0.10436585
 C       3.43050       3.39030       2.08460       -0.01088901
 C       4.68160       3.27060       2.63370       0.04941614
 O       4.63330       2.52600       3.80170       -0.23497804
 C       3.04000       4.06390       0.88660       0.02269206
 S       3.66360       5.64050       0.49300       0.01182676
 C       2.71930       5.72410       -0.96010       -0.03878803
 C       1.96250       4.59380       -1.12340       -0.04158360
 C       2.14410       3.63830       -0.07100       -0.00542609
 C       1.44080       2.36580       -0.05290       -0.00018741
 C       2.15590       1.16770       0.06330       -0.03138312
 C       1.49410       -0.04970       0.10380       -0.05862333
 C       0.08690       -0.07420       0.03900       0.08019117
 N       -0.59150       -1.28360       0.16040       -0.27564730
 C       -0.63740       1.12720       -0.08560       -0.06022984
 C       0.04500       2.33430       -0.13140       -0.03366932
 C       2.72250       6.88860       -1.86750       0.49463283
 F       3.84430       7.61140       -1.86220       -0.20677581
 F       2.54070       6.58290       -3.15390       -0.20799765
 F       1.76020       7.77740       -1.60550       -0.21087672
 H       2.14690       1.35890       5.44600       0.17412380
 H       3.81230       1.21580       5.70430       0.18662701
 H       1.47400       2.56250       2.78520       0.04213956
 H       5.66440       3.59020       2.38390       0.05638344
 H       1.29010       4.40280       -1.95140       0.05778030
 H       3.24480       1.19890       0.12570       0.02982710
 H       2.05500       -0.97380       0.20040       0.02994231
 H       -1.55610       -1.32510       -0.08710       0.16085486
 H       -0.08480       -2.13550       0.05020       0.16083778
 H       -1.72080       1.11110       -0.13480       0.02928595
 H       -0.51020       3.26870       -0.22060       0.03104366
no frequencies
Nc1cc(co1)c1sc(cc1c1ccc(N)cc1)C(F)(F)F
