22
h_2640.out 0.26132
 C       -3.07790       3.76060       4.23700       0.03004639
 S       -4.57650       3.61020       3.17760       -0.12556107
 C       -3.80080       2.80510       1.83080       0.03325417
 C       -4.34620       2.38850       0.65660       -0.03685217
 S       -3.13230       1.63510       -0.33260       -0.02219668
 C       -1.86830       1.88890       0.86510       0.00629772
 C       -2.39380       2.52350       1.95320       0.02819260
 S       -1.60280       3.00190       3.43550       -0.11748901
 C       -0.53820       1.44630       0.61330       0.01890297
 C       -0.10140       0.15190       0.47750       -0.06349280
 C       1.28780       0.14100       0.20650       0.10744083
 O       2.17980       -0.87650       -0.01300       -0.20866918
 C       3.39950       -0.23950       -0.22550       0.06860733
 C       3.29540       1.12670       -0.14560       -0.05943455
 C       1.92020       1.39120       0.13540       0.00182771
 S       0.77080       2.63600       0.41200       -0.03359106
 H       -3.26410       3.26460       5.20590       0.06489640
 H       -2.87820       4.82770       4.43850       0.06499781
 H       -5.36860       2.48090       0.32980       0.06394916
 H       -0.70820       -0.73560       0.57030       0.06001228
 H       4.19080       -0.92870       -0.41140       0.06466540
 H       4.06970       1.85630       -0.26600       0.05419573
no frequencies
C1Sc2csc(c2S1)c1cc2occc2s1
