53
m_3252.out 0.26544
 C       5.64360       -0.46190       -2.11620       -0.10810724
 C       5.43120       -1.95180       -1.80860       0.04009638
 C       4.19960       -2.50540       -2.59200       -0.00478150
 N       2.91670       -2.40790       -1.85550       -0.13356019
 C       2.77630       -3.37740       -0.81580       0.04332872
 C       2.70390       -3.07630       0.54760       0.03474297
 S       2.78150       -1.41220       1.12930       -0.11693662
 C       2.40060       -0.49810       -0.32750       0.03747390
 C       2.51570       -1.06670       -1.60200       0.06940711
 C       2.20170       -0.28900       -2.73270       -0.04518063
 C       1.86040       1.04660       -2.57890       -0.08405868
 C       1.75830       1.61150       -1.30840       -0.03459896
 C       2.00900       0.83210       -0.18270       -0.03868103
 S       1.60530       2.05020       -4.00570       1.08763445
 O       0.53520       1.51730       -4.81500       -0.55484028
 O       1.59600       3.43190       -3.58060       -0.56533126
 N       3.09490       1.75210       -4.89380       -0.29344183
 C       2.94870       1.64750       -6.35340       -0.03043912
 C       4.21860       2.62340       -4.51320       -0.03064392
 C       2.55350       -4.07910       1.49720       -0.07003453
 C       2.46590       -5.41830       1.07880       0.07650106
 N       2.40410       -6.44090       2.02320       -0.27493642
 C       2.49980       -5.72970       -0.29530       -0.06313605
 C       2.64680       -4.71630       -1.22650       -0.04554897
 N       6.69110       -2.67770       -2.07960       -0.17985590
 C       6.71090       -3.99900       -1.41700       -0.03248777
 C       6.99260       -2.80970       -3.51830       -0.03478313
 H       4.85440       0.14920       -1.66510       0.03107081
 H       5.65550       -0.25230       -3.19000       0.03630262
 H       6.60430       -0.12260       -1.70490       0.05222890
 H       5.23220       -2.05580       -0.70730       0.03495352
 H       4.08340       -1.96700       -3.55840       0.04143117
 H       4.36350       -3.57350       -2.85240       0.04478002
 H       2.24510       -0.75910       -3.72170       0.06314055
 H       1.48720       2.66590       -1.18100       0.06708246
 H       1.90520       1.28060       0.80750       0.05960936
 H       3.84970       1.16410       -6.77130       0.04899964
 H       2.08520       1.00150       -6.61000       0.06243996
 H       2.81130       2.61420       -6.86390       0.03539451
 H       4.41140       2.53660       -3.42850       0.04199375
 H       5.13560       2.29150       -5.03050       0.05311697
 H       4.06140       3.69140       -4.74630       0.04460173
 H       2.50360       -3.84600       2.55980       0.04165056
 H       2.16020       -6.20900       2.96290       0.16349425
 H       2.11510       -7.34860       1.72510       0.16325005
 H       2.40860       -6.76160       -0.62250       0.03485669
 H       2.65050       -4.95080       -2.29280       0.04092646
 H       6.57850       -3.85870       -0.33020       0.03743798
 H       7.70170       -4.45880       -1.56540       0.04146623
 H       5.94280       -4.70330       -1.76800       0.01465694
 H       6.98140       -1.81340       -3.98910       0.04145996
 H       8.01700       -3.20530       -3.62670       0.04067958
 H       6.30830       -3.46670       -4.07440       0.01517480
no frequencies
C[C@@H](CN1c2c(Sc3c1cc(cc3)S(=O)(=O)N(C)C)cc(N)cc2)N(C)C
