31
a_1261.out 0.2568
 F       4.47770       4.79940       2.39650       -0.19705909
 C       4.06510       5.37190       1.26950       0.49015624
 F       5.16730       5.50200       0.52680       -0.21114247
 F       3.76710       6.62820       1.61630       -0.21456461
 C       2.95980       4.65950       0.58990       -0.01173662
 C       2.39450       3.41870       0.88650       -0.04758584
 C       1.36890       3.18670       -0.06810       -0.01333148
 C       0.51040       2.03850       -0.13170       0.01833429
 C       -0.80390       2.06100       -0.57040       -0.04268825
 S       -1.53260       0.49480       -0.53620       0.03243765
 C       -0.11980       -0.22700       0.06130       0.01268236
 C       0.89490       0.72710       0.23900       -0.05898562
 C       2.11930       0.04770       0.76500       0.23706781
 O       3.17330       0.52980       1.06340       -0.33728444
 C       1.71320       -1.39040       0.85380       -0.05183471
 C       0.38020       -1.52120       0.43580       0.01176789
 S       -0.11690       -3.14180       0.52420       0.03335999
 C       1.43470       -3.66000       1.11360       -0.03027016
 C       2.31090       -2.60620       1.24060       -0.02898309
 C       1.34070       4.30120       -0.93820       0.04038397
 C       0.50670       4.53150       -2.09930       -0.03173151
 C       0.09200       5.73630       -2.49790       -0.08738062
 N       2.31060       5.19310       -0.52320       -0.08682481
 H       2.53630       6.05640       -0.96680       0.18362654
 H       2.67890       2.74600       1.67820       0.08223649
 H       -1.34720       2.93400       -0.88270       0.05430195
 H       1.63800       -4.69110       1.33720       0.05548042
 H       3.33230       -2.67990       1.59040       0.05934779
 H       0.22540       3.61770       -2.63760       0.05230175
 H       -0.52820       5.88750       -3.36980       0.04583379
 H       0.32060       6.65980       -1.98790       0.04208438
no frequencies
FC(F)(F)c1cc(c2csc3-c4c(C(=O)c23)ccs4)c(C=C)[nH]1
