27
f_6569.out 0.25872
 O       6.96100       -2.49870       3.21680       -0.38780360
 N       5.96440       -2.42550       2.51410       0.53221874
 O       5.96890       -2.65660       1.31590       -0.37664381
 C       4.71540       -2.03700       3.14390       -0.00634672
 C       4.71060       -1.77420       4.51640       -0.02482849
 C       3.53170       -1.38730       5.15130       -0.03625396
 C       2.34280       -1.26260       4.43240       0.02456244
 C       1.12110       -0.84800       5.11110       -0.00458197
 C       0.71380       0.44970       5.25350       -0.02666454
 S       -0.79030       0.51720       6.10790       -0.00207377
 C       -0.86800       -1.21000       6.27800       -0.02064207
 C       0.21680       -1.80010       5.70010       -0.04699604
 C       2.33840       -1.53250       3.05900       -0.00290552
 C       3.53810       -1.91930       2.40530       0.02904492
 S       3.28420       -2.18470       0.68060       0.01659251
 C       1.59350       -1.78690       0.82410       0.01045996
 C       1.24810       -1.47160       2.13450       0.00455342
 S       -0.43310       -1.09870       2.23890       -0.01074521
 C       -0.65620       -1.36290       0.52570       -0.01937296
 C       0.50920       -1.72080       -0.09350       -0.04656856
 H       5.63720       -1.87060       5.09470       0.08300395
 H       3.53790       -1.17640       6.22180       0.05467263
 H       1.21850       1.33030       4.89470       0.04935060
 H       -1.68440       -1.69850       6.77790       0.05442393
 H       0.40970       -2.86270       5.66590       0.04039187
 H       -1.62250       -1.24420       0.06830       0.05919256
 H       0.61290       -1.93030       -1.14880       0.05395969
no frequencies
O=N(=O)c1ccc(c2cscc2)c2c1sc1c2scc1
