22
f_3815.out 0.27955
 N       -2.88790       -1.92120       -0.70560       -0.10857143
 C       -2.09050       -2.90090       -0.09130       -0.00030611
 C       -0.84970       -2.37190       0.20630       -0.06047359
 C       -0.85660       -1.00740       -0.22880       -0.02328270
 C       -2.15250       -0.74560       -0.80100       0.04088387
 C       -2.52740       0.50120       -1.33310       -0.06018979
 C       -1.61020       1.53800       -1.30090       -0.03957575
 C       -0.34110       1.32810       -0.74900       -0.02621999
 C       0.02030       0.06380       -0.22850       0.12590828
 O       1.31590       0.01860       0.27540       -0.24547312
 C       1.80780       1.29750       0.08090       0.11785483
 C       2.99860       1.86450       0.37060       -0.05180707
 S       2.92630       3.53790       -0.15140       -0.03272577
 C       1.28070       3.42770       -0.74800       -0.03130848
 C       0.81400       2.17020       -0.55810       -0.02430346
 H       -3.82240       -2.04520       -1.01490       0.16207131
 H       -2.47430       -3.88830       0.08280       0.03910928
 H       -0.02110       -2.86160       0.67360       0.04368447
 H       -3.51480       0.64250       -1.75740       0.03110500
 H       -1.86530       2.51870       -1.70100       0.03511628
 H       3.86470       1.43440       0.83290       0.05735038
 H       0.77520       4.26750       -1.18530       0.05115357
no frequencies
[nH]1ccc2c1ccc1c2oc2cscc12
