23
P_C21780783.out 0.27051
 O       1.28340       -0.16150       -0.23630       -0.37615243
 N       0.09410       0.01090       -0.11020       0.39855923
 O       -0.71370       -1.15950       0.02060       -0.12111750
 N       -2.01330       -0.77650       0.15600       -0.10032554
 C       -2.07530       0.55130       0.11580       0.05797804
 C       -3.17220       1.47600       0.21190       0.11129373
 O       -4.39540       0.88150       0.18360       -0.26990335
 C       -5.31280       1.29050       1.19120       0.07744660
 C       -5.84130       2.68810       0.89280       -0.07416063
 C       -4.79940       3.74410       1.23230       0.07844361
 O       -3.78770       3.83090       0.23380       -0.27520004
 C       -2.88370       2.81440       0.18430       0.12125165
 C       -1.53850       3.31900       -0.00340       -0.04581437
 C       -0.47640       2.48410       -0.12710       -0.03347710
 C       -0.72220       1.08300       -0.05490       -0.01412849
 H       -4.85170       1.20360       2.18890       0.03544036
 H       -6.09600       0.51190       1.08310       0.06578653
 H       -6.10750       2.76080       -0.18600       0.07050660
 H       -6.77960       2.87540       1.44850       0.04767529
 H       -5.21380       4.77200       1.18610       0.06224856
 H       -4.33320       3.58350       2.22000       0.03393663
 H       -1.42890       4.40390       -0.05210       0.07775342
 H       0.54400       2.83890       -0.27590       0.07195918
no frequencies
[O]N1ON=C2C3=C(OCCCO3)C=C[C]12
