35
s_22312.out 0.29877
 C       1.50520       0.03370       -0.03400       0.02698298
 O       0.18980       -0.27450       0.42320       -0.26453246
 C       -0.50720       0.76840       0.94010       0.36243613
 O       -0.11720       1.90670       0.90950       -0.39441759
 C       -1.77950       0.28810       1.49680       -0.02234666
 C       -2.51210       -0.76470       1.00620       -0.01787574
 S       -3.93700       -0.99640       1.92750       0.11717995
 C       -3.56600       0.31540       2.99720       -0.04521028
 C       -2.37530       0.90580       2.64240       0.01593317
 C       -1.72120       2.02160       3.34170       0.12393555
 C       -2.31190       3.32170       3.34490       -0.02941371
 C       -1.65920       4.33110       4.00410       -0.00315845
 C       -0.42450       4.05980       4.64730       0.00239144
 C       0.33520       5.04160       5.35180       0.06564137
 N       1.48850       4.76880       5.93720       -0.19863120
 C       1.99570       3.49760       5.87150       0.05848143
 C       1.35150       2.46940       5.21400       -0.03754206
 C       0.09840       2.74150       4.58540       0.11217817
 N       -0.57140       1.73730       3.93740       -0.22735362
 C       1.92520       1.08820       5.13090       0.49549789
 F       2.12930       0.65920       3.88750       -0.20081538
 F       1.18210       0.15240       5.71500       -0.19736111
 F       3.12210       0.95940       5.71220       -0.20998279
 C       -4.43660       0.70600       4.12750       0.49834473
 F       -5.38540       1.58320       3.78790       -0.20579217
 F       -3.79840       1.28620       5.14290       -0.20164821
 F       -5.10720       -0.30110       4.68850       -0.19779947
 H       2.12630       0.33840       0.81670       0.07564063
 H       1.84460       -0.91850       -0.45550       0.07653371
 H       1.47700       0.82360       -0.79090       0.06883697
 H       -2.23940       -1.38350       0.16100       0.09294520
 H       -3.25180       3.48620       2.82210       0.05655176
 H       -2.07270       5.34070       4.04090       0.05989206
 H       -0.02740       6.07660       5.42920       0.06573290
 H       2.95910       3.37990       6.39150       0.07874485
no frequencies
COC(=O)c1csc(c1c1ccc2cncc(c2n1)C(F)(F)F)C(F)(F)F
