20
f_1319.out 0.27918
 N       -7.02000       1.25580       -0.06750       -0.28943112
 C       -5.76500       0.62750       -0.09920       0.06919159
 C       -5.71950       -0.79760       -0.06010       -0.05971595
 C       -4.51700       -1.46780       -0.01510       -0.05152674
 C       -3.34240       -0.70270       -0.01300       0.03336052
 N       -2.00700       -1.10620       0.02080       -0.12094081
 C       -1.20600       0.04450       0.00890       0.06685647
 C       -2.01550       1.17700       -0.03450       -0.07243455
 C       -3.37360       0.72940       -0.04920       -0.00849728
 C       -4.60250       1.39390       -0.09410       -0.06979308
 C       0.19050       -0.03600       0.03870       -0.02907484
 C       1.40170       -0.07150       0.06480       -0.10382300
 H       -7.80880       0.72380       -0.37150       0.15268519
 H       -7.05590       2.21960       -0.33200       0.15292112
 H       -6.65300       -1.35440       -0.05380       0.02427358
 H       -4.47540       -2.55210       0.02050       0.02148597
 H       -1.67720       -2.04080       0.05310       0.15403682
 H       -1.69230       2.19460       -0.05330       0.02921074
 H       -4.63390       2.47700       -0.11340       0.02376827
 H       2.43050       -0.09770       0.08680       0.07744712
no frequencies
Nc1ccc2[nH]c(cc2c1)C#C
