54
m_9906.out 0.29447
 C       0.57000       -0.13750       -4.10970       -0.10640179
 C       -0.65910       -0.89200       -4.58600       0.09258959
 O       -0.57580       -2.14700       -3.88740       -0.32498317
 C       -1.63540       -2.98430       -4.11730       0.13331000
 C       -1.60520       -3.77940       -5.28440       -0.06313330
 C       -2.57150       -4.73690       -5.47240       0.01836311
 C       -2.53600       -5.58230       -6.69950       -0.10562202
 C       -3.59760       -4.92330       -4.49150       0.00129840
 C       -4.58900       -5.93070       -4.64420       -0.03435418
 C       -5.56800       -6.10780       -3.70070       -0.02931381
 C       -5.60500       -5.27760       -2.55580       -0.02670226
 C       -4.66270       -4.29720       -2.38150       -0.03031792
 C       -3.63080       -4.09810       -3.34040       0.01883548
 C       -2.62430       -3.10190       -3.16430       -0.05138848
 C       -2.67490       -2.19050       -1.99710       0.28164067
 O       -3.69470       -1.68220       -1.57200       -0.43459171
 N       -1.46440       -1.94590       -1.36680       -0.19643289
 C       -1.38370       -0.99280       -0.28640       0.02591023
 C       -2.14290       0.37700       -0.47690       0.08482049
 S       -3.02000       1.04740       0.98020       -0.16561676
 C       -1.94940       2.58590       1.07390       0.06740106
 C       -1.60140       2.82310       2.53330       -0.11048557
 C       -2.73200       3.76790       0.51740       -0.11207583
 C       -0.69230       2.32480       0.17620       0.02992501
 N       -0.82090       1.07440       -0.56100       -0.17392084
 C       -0.07200       -0.13190       -0.33090       0.28556896
 O       1.09410       -0.34210       -0.33730       -0.34151274
 C       0.58780       2.36920       0.99910       0.36568278
 O       0.75800       1.22770       1.70400       -0.37076145
 O       1.36500       3.28120       1.06470       -0.38180254
 H       0.52850       0.07260       -3.03060       0.05163175
 H       1.48710       -0.71760       -4.28240       0.06029213
 H       0.67320       0.82260       -4.62750       0.04557296
 H       -0.64360       -1.09310       -5.67080       0.03262625
 H       -1.60300       -0.39110       -4.30700       0.02313688
 H       -0.79850       -3.62620       -5.99760       0.04727789
 H       -2.36700       -6.64180       -6.44980       0.05179743
 H       -1.73450       -5.29020       -7.39330       0.04308070
 H       -3.47970       -5.52030       -7.26260       0.05117928
 H       -4.56100       -6.57010       -5.52480       0.03826202
 H       -6.32340       -6.88140       -3.81770       0.03304386
 H       -6.39110       -5.42980       -1.81750       0.03658987
 H       -4.70430       -3.64820       -1.50100       0.06211870
 H       -0.58980       -2.22870       -1.80460       0.20120264
 H       -1.56090       -1.48720       0.69410       0.07400214
 H       -2.74440       0.46520       -1.40150       0.07333203
 H       -0.93160       3.68740       2.65600       0.04696483
 H       -2.49150       3.04180       3.14100       0.05822515
 H       -1.10720       1.95890       3.00550       0.05650516
 H       -3.65540       3.95740       1.08310       0.05999542
 H       -3.02910       3.62810       -0.53120       0.04963318
 H       -2.14360       4.69520       0.56720       0.04917783
 H       -0.60770       3.14550       -0.60190       0.06888885
 H       1.64750       1.15160       2.13650       0.33953454
no frequencies
CCOc1cc(C)c2ccccc2c1C(=O)N[C@@H]1[C@H]2SC(C)(C)[C@H](N2C1=O)C(=O)O
