45
s_12667.out 0.26254
 C       -0.09330       0.92740       1.18290       -0.03477049
 N       0.50060       -0.11700       0.34280       -0.18550208
 C       -0.09130       -1.37870       0.30620       0.07037994
 C       0.65780       -2.45140       -0.23280       -0.05995074
 C       0.08060       -3.69930       -0.35580       -0.03470013
 C       -1.24490       -3.94720       0.04290       -0.00781844
 C       -1.99470       -2.86690       0.54490       0.00890657
 C       -1.41790       -1.60190       0.69450       -0.06715965
 C       -3.38810       -3.07860       0.87280       -0.00846788
 C       -4.30780       -2.11010       1.19300       -0.03010259
 S       -5.87290       -2.79580       1.37150       -0.00967913
 C       -5.32040       -4.38600       1.01800       -0.03131667
 C       -3.96370       -4.40730       0.80230       -0.00792437
 C       -3.12150       -5.53980       0.47520       0.00500486
 C       -3.55150       -6.87400       0.60440       0.00124076
 C       -2.76950       -7.92380       0.11890       -0.03472780
 C       -1.53250       -7.66110       -0.46180       -0.03113810
 C       -1.05570       -6.35930       -0.50420       -0.03696033
 C       -1.81620       -5.28830       -0.01030       0.01066813
 C       -4.77870       -7.25990       1.27100       0.01850017
 S       -4.87270       -7.32550       3.02660       0.01291321
 C       -6.49960       -7.92130       3.01470       -0.03174017
 C       -6.94310       -8.06440       1.73070       -0.00699882
 C       -8.19650       -8.51120       1.15450       -0.03917955
 C       -8.25350       -8.51930       -0.18790       -0.02251913
 Se       -6.63510       -7.92400       -1.01310       -0.00859830
 C       -5.95100       -7.69220       0.74400       -0.00907301
 C       -9.31530       -8.92210       2.05320       0.49160469
 F       -10.43840       -9.27230       1.42510       -0.20931294
 F       -9.03330       -9.97100       2.82720       -0.20839685
 F       -9.70130       -7.97310       2.90750       -0.20818141
 H       0.52380       1.83990       1.13020       0.04475068
 H       -1.09790       1.18820       0.80110       0.05085712
 H       -0.18850       0.62870       2.24090       0.03605584
 H       1.51000       -0.08800       0.29180       0.15247490
 H       1.68180       -2.28990       -0.55340       0.02546074
 H       0.68170       -4.51150       -0.77080       0.03265445
 H       -2.01000       -0.79150       1.10580       0.03199247
 H       -4.12230       -1.05770       1.30480       0.04499665
 H       -6.01160       -5.20850       0.95850       0.04180796
 H       -3.13060       -8.94850       0.19960       0.03202188
 H       -0.93430       -8.47670       -0.86300       0.03435718
 H       -0.06910       -6.17640       -0.92980       0.03822269
 H       -7.03560       -8.13370       3.92430       0.06533458
 H       -9.06420       -8.80590       -0.82640       0.07401312
no frequencies
CNc1ccc2c(c1)c1cscc1c1c(cccc21)c1scc2c(c[se]c12)C(F)(F)F
