70
m_1692.out 0.31476
 C       5.69500       3.02510       2.52230       -0.13191021
 C       4.52070       3.42530       3.35860       0.23980819
 O       4.34670       4.57240       3.69910       -0.36754588
 C       3.56540       2.36640       3.77600       -0.01280356
 C       2.20890       2.68520       3.85910       -0.02148762
 C       1.29900       1.72780       4.30130       -0.02643293
 C       1.74590       0.46740       4.69430       -0.02707920
 C       3.10400       0.15600       4.62370       0.01192382
 C       3.61450       -1.15910       5.13640       0.07997191
 O       4.86830       -0.97040       5.79290       -0.31681893
 C       4.79300       -0.11190       6.87570       0.40136910
 O       3.77750       0.10080       7.49410       -0.44013494
 N       6.02740       0.45170       7.08590       -0.19452251
 C       6.09910       1.66080       7.91460       0.01734293
 C       5.62400       2.89320       7.10690       -0.05784792
 C       4.10000       3.01370       7.18450       -0.07102397
 C       3.64180       4.46100       6.94610       0.01191051
 N       2.38010       4.66290       7.69430       -0.27175493
 C       2.09390       6.03330       8.03720       0.22376231
 N       1.16970       6.11050       9.09860       -0.29977780
 N       2.55880       7.11770       7.51730       -0.40506311
 C       7.57380       1.84440       8.28420       0.26929101
 O       8.44600       1.50870       7.50300       -0.42425500
 N       8.00950       2.40090       9.47790       -0.18903467
 C       7.25050       2.91420       10.61250       0.01822004
 C       6.37820       4.13110       10.24330       -0.07492976
 C       5.27330       4.43950       11.25700       -0.06648132
 C       3.94830       3.82980       10.77350       0.00175318
 N       2.82560       4.23430       11.64650       -0.24697448
 C       1.61950       3.48020       11.54970       0.21880643
 N       1.41730       2.81330       10.33110       -0.29694841
 N       0.70610       3.40720       12.46530       -0.42641819
 C       6.44460       1.79340       11.26390       0.35901056
 O       6.52420       1.93340       12.61300       -0.38103580
 O       5.83480       0.88730       10.77190       -0.37190576
 C       4.01170       1.09610       4.13370       -0.03151786
 H       5.43150       2.27910       1.76120       0.05692830
 H       6.49670       2.59920       3.14420       0.07073212
 H       6.12680       3.89580       2.00230       0.06812742
 H       1.86960       3.68570       3.58310       0.05316652
 H       0.23790       1.96900       4.35450       0.04414027
 H       1.03460       -0.26660       5.07420       0.04702922
 H       3.88990       -1.86060       4.32290       0.06358084
 H       2.91210       -1.65210       5.83710       0.06003735
 H       6.82760       0.23020       6.50290       0.20453106
 H       5.44890       1.50860       8.82500       0.10029082
 H       5.95250       2.81260       6.05230       0.04321515
 H       6.11640       3.81280       7.48010       0.04114561
 H       3.61710       2.33400       6.45290       0.04147898
 H       3.72550       2.64710       8.16580       0.06212977
 H       3.52500       4.65870       5.85630       0.04092563
 H       4.40610       5.17820       7.32040       0.03686579
 H       1.59040       4.16790       7.28180       0.15587076
 H       1.03430       7.04300       9.46740       0.18005280
 H       1.28680       5.42180       9.82480       0.18201424
 H       3.09960       7.10770       6.67370       0.14085475
 H       9.02430       2.44330       9.58640       0.19596106
 H       8.00670       3.26330       11.38550       0.07606873
 H       5.93350       4.00150       9.23490       0.07021935
 H       7.04390       5.01380       10.13590       0.05090259
 H       5.53730       4.07810       12.26900       0.04509325
 H       5.15710       5.53850       11.36270       0.05051101
 H       4.02910       2.71900       10.70560       0.03515820
 H       3.71950       4.20620       9.74390       0.05875242
 H       3.11050       4.45290       12.59620       0.15143511
 H       0.50810       2.38610       10.22290       0.18174043
 H       1.76400       3.26150       9.49700       0.18473969
 H       0.85140       3.77150       13.38440       0.12495232
 H       6.04580       1.22720       13.11730       0.33485194
 H       5.06970       0.83750       4.06180       0.04703127
no frequencies
CC(=O)c1cccc(COC(=O)N[C@H](CCCNC(=N)N)C(=O)N[C@@H](CCCNC(=N)N)C(=O)O)c1
