27
a_8479.out 0.26066
 C       -6.14610       -2.95840       -3.88010       -0.10549131
 C       -6.10570       -1.48860       -3.74160       0.02471705
 C       -6.91300       -0.59550       -4.41980       -0.04294476
 S       -6.56340       1.04830       -3.99900       0.03188572
 C       -5.34080       0.58890       -2.91910       0.00912292
 C       -5.20920       -0.80860       -2.88650       -0.06070805
 C       -4.13140       -1.18220       -1.92590       0.23771018
 O       -3.76360       -2.27820       -1.61360       -0.34518892
 C       -3.63360       0.13850       -1.42300       -0.06010229
 C       -4.37740       1.16660       -2.02190       0.01365068
 S       -3.85220       2.68420       -1.47890       0.04205236
 C       -2.63980       1.98630       -0.46430       -0.03852317
 C       -2.63000       0.60280       -0.53880       0.01150571
 C       -1.73110       -0.26830       0.16410       0.02657145
 C       -1.99460       -1.51390       0.66730       -0.03651601
 C       -0.85160       -2.11320       1.29820       0.00848043
 C       0.27170       -1.32300       1.26210       -0.01249356
 S       -0.05790       0.16160       0.45530       -0.00208178
 C       -0.91480       -3.39530       1.88710       0.11277224
 N       -0.97260       -4.44560       2.37100       -0.22917772
 H       -5.61590       -3.46300       -3.05120       0.06954104
 H       -7.17350       -3.34860       -3.89700       0.04812975
 H       -5.65510       -3.28610       -4.81100       0.05572576
 H       -7.67670       -0.84900       -5.13050       0.05511925
 H       -2.00030       2.59810       0.14610       0.05748469
 H       -2.95130       -2.02320       0.59890       0.07100791
 H       1.24100       -1.56480       1.66760       0.05775044
no frequencies
Cc1csc2-c3c(C(=O)c12)c(cs3)c1cc(cs1)C#N
