35
s_23875.out 0.28087
 C       1.60970       0.00370       0.09360       0.03879139
 O       0.31340       -0.36880       0.54790       -0.27894037
 C       -0.25770       0.48170       1.44880       0.35116527
 O       0.32610       1.46840       1.83630       -0.42892162
 C       -1.57020       0.02830       1.83320       -0.05162038
 S       -2.40730       0.74890       3.17960       0.00286868
 C       -3.79110       -0.29810       2.98170       0.03891785
 C       -3.61600       -1.15120       1.91990       -0.08955477
 C       -2.35210       -0.96710       1.27330       0.14404572
 O       -1.87860       -1.64000       0.21380       -0.24739046
 C       -2.73170       -2.64380       -0.33210       0.02950968
 C       -4.93710       -0.20110       3.82410       -0.04071953
 C       -6.29600       -0.31110       3.39530       -0.07294923
 C       -7.12260       -0.15350       4.50900       0.03354297
 C       -8.56490       -0.15490       4.56220       -0.03169373
 C       -9.29920       0.06920       5.65630       -0.09337070
 N       -6.30130       0.03790       5.63150       -0.12696666
 C       -4.98140       0.00700       5.20990       0.17224393
 O       -3.98330       0.02460       6.11390       -0.29112613
 C       -3.70630       1.32880       6.63650       0.02928523
 H       2.30710       0.06150       0.93620       0.06031919
 H       1.87120       -0.81290       -0.58880       0.06441858
 H       1.56460       0.96470       -0.42940       0.05915085
 H       -4.33610       -1.88960       1.61330       0.04844952
 H       -2.12830       -3.01710       -1.17190       0.07128274
 H       -2.90950       -3.44130       0.39580       0.05167562
 H       -3.66870       -2.21060       -0.69410       0.05065841
 H       -6.61070       -0.47150       2.38520       0.04470063
 H       -9.04330       -0.35510       3.59540       0.04553809
 H       -10.37940       0.06360       5.64790       0.03715334
 H       -8.90110       0.27560       6.63440       0.03026220
 H       -6.61890       0.13050       6.56920       0.18113357
 H       -2.76710       1.16170       7.18230       0.07415768
 H       -3.55980       2.06080       5.83620       0.05259744
 H       -4.50410       1.64080       7.31310       0.04138501
no frequencies
COC(=O)c1sc(cc1OC)c1cc(C=C)[nH]c1OC
