19
c_2730.out 0.25125
 H       -4.41240       3.65300       -2.03710       0.08377317
 C       -3.51520       3.05810       -2.00780       -0.05665030
 S       -2.48920       2.99060       -0.61050       0.01380107
 C       -1.35330       1.89410       -1.37900       -0.00561652
 C       -1.78430       1.60930       -2.64810       0.13724861
 F       -1.15990       0.82240       -3.49130       -0.18348278
 C       -3.00920       2.27180       -3.00120       0.14475991
 F       -3.55530       2.11020       -4.18450       -0.18638264
 C       -0.19120       1.43030       -0.70470       0.01396496
 S       0.04520       -0.27240       -0.36220       0.00917214
 C       1.57780       -0.00490       0.42130       -0.02916604
 H       2.15990       -0.81140       0.82970       0.06203102
 C       1.87360       1.31630       0.40950       0.00967005
 Se       3.31620       2.38830       1.03080       -0.05677337
 C       2.36500       3.89150       0.30970       -0.01851472
 H       2.81210       4.85560       0.40790       0.05996840
 C       1.20120       3.56040       -0.26800       -0.03554741
 H       0.52600       4.25900       -0.74920       0.04507596
 C       0.87740       2.14750       -0.23170       -0.00733150
no frequencies
c1sc(c(F)c1F)c1scc2[se]ccc12
