32
h_5504.out 0.26823
 N       -0.91980       -1.11280       -0.00080       -0.27559713
 C       -0.18230       0.06640       -0.02330       0.07951740
 C       1.21140       0.02500       0.18030       -0.06003125
 C       1.92970       1.20990       0.22630       -0.03311029
 C       1.28610       2.44200       0.06240       -0.00475377
 C       -0.09700       2.47670       -0.14350       -0.03474007
 C       -0.83570       1.30300       -0.18870       -0.05978539
 C       2.05920       3.67350       0.10480       -0.00107259
 C       2.00410       4.67000       -0.83110       -0.02675181
 S       3.08900       5.96100       -0.43090       -0.05199145
 C       3.63100       5.14800       1.02960       0.02053025
 C       2.99060       3.94930       1.16920       -0.05419495
 C       4.59130       5.75050       1.88650       -0.00380571
 S       4.21030       6.12650       3.57310       -0.03765107
 C       5.78310       6.80950       3.92000       -0.05028357
 C       6.54800       6.75170       2.80280       0.04048258
 N       7.83720       7.09100       2.38660       -0.17136798
 C       8.00230       6.73050       1.02330       0.32892298
 O       8.99510       6.88670       0.36260       -0.42213609
 N       6.78020       6.15960       0.58110       -0.16600978
 C       5.86920       6.14550       1.63610       0.03517793
 H       -0.44260       -1.98450       -0.08040       0.15991471
 H       -1.85930       -1.10520       -0.33340       0.15980664
 H       1.71830       -0.92590       0.30780       0.02687307
 H       3.00910       1.18470       0.38270       0.02854109
 H       -0.59850       3.43780       -0.26230       0.02789746
 H       -1.90940       1.33770       -0.34120       0.02714700
 H       1.39390       4.68850       -1.71630       0.04578681
 H       3.14280       3.25460       1.98270       0.04238411
 H       6.03530       7.19340       4.88930       0.05560231
 H       8.53800       7.52870       2.94480       0.18574458
 H       6.63000       5.77630       -0.32930       0.18895396
no frequencies
Nc1ccc(cc1)c1csc(c1)c1scc2[nH]c(=O)[nH]c12
