16
h_8047.out 0.29829
 O       -3.06670       -3.37010       5.79330       -0.37369294
 N       -2.22550       -4.17930       5.44230       0.54325991
 O       -1.84210       -5.11230       6.13050       -0.38389632
 C       -1.64480       -4.03060       4.13260       -0.00624614
 C       -0.66940       -4.86880       3.62640       -0.01950642
 S       -0.23100       -4.39920       2.05010       0.13902696
 C       -1.35000       -3.06300       2.04980       0.00390528
 C       -2.04010       -2.99290       3.23880       -0.03493876
 C       -1.48130       -2.19640       0.93450       0.20487689
 N       -0.95860       -2.20980       -0.29330       -0.17097311
 N       -1.41690       -1.12190       -0.96200       -0.13926799
 C       -2.21740       -0.44220       -0.15390       0.16964127
 O       -2.30100       -1.07620       1.07310       -0.21842269
 H       -0.23550       -5.71320       4.15230       0.10613686
 H       -2.79680       -2.25300       3.49010       0.09721071
 H       -2.78110       0.46080       -0.26640       0.08288647
no frequencies
O=N(=O)c1csc(c1)c1nnco1
