24
c_699.out 0.25614
 H       0.68910       -3.70540       3.49180       0.02186662
 C       1.49700       -3.32640       2.86980       -0.02913239
 C       2.76140       -3.79050       2.88030       -0.14027461
 H       3.13210       -4.59830       3.50340       0.02648586
 Si       3.74320       -2.81430       1.66970       0.45398408
 H       4.82680       -2.08450       2.30690       -0.08477800
 H       4.27130       -3.63890       0.59560       -0.08370377
 C       2.35840       -1.75230       1.16240       -0.11715050
 C       2.06700       -0.72060       0.33650       -0.01503140
 H       2.70940       -0.19080       -0.34700       0.04234529
 S       0.37880       -0.28060       0.49320       -0.05384314
 C       0.06620       -1.52520       1.69730       0.01799923
 C       -1.23940       -1.70370       2.23320       0.01498112
 S       -2.14080       -3.17550       1.90730       -0.02472648
 C       -3.52870       -2.64510       2.82350       -0.02952488
 H       -4.40680       -3.25520       2.92450       0.05521423
 C       -3.29520       -1.41530       3.33580       0.01095918
 Se       -4.26960       -0.18840       4.41520       -0.08070111
 C       -2.73700       0.96370       4.29580       -0.01836606
 H       -2.78520       1.90190       4.80180       0.05536793
 C       -1.73710       0.44840       3.56670       -0.03372899
 H       -0.78490       0.93430       3.38120       0.04327833
 C       -1.99490       -0.86530       3.00860       -0.00943753
 C       1.21550       -2.21960       1.94970       -0.02208301
no frequencies
C1=C[SiH2]c2csc(c3scc4[se]ccc34)c12
