31
a_1292.out 0.23836
 F       -6.77420       -5.26790       -6.82340       -0.20435172
 C       -5.82420       -6.14910       -7.14200       0.49556085
 F       -5.47980       -5.82230       -8.39000       -0.20797235
 F       -6.48250       -7.30260       -7.27900       -0.20580872
 C       -4.69360       -6.18120       -6.19580       -0.04952577
 C       -4.13630       -5.06000       -5.60120       -0.02171663
 C       -3.08150       -5.41270       -4.74960       -0.04968564
 C       -2.82950       -6.79850       -4.69960       0.01588438
 S       -3.89380       -7.64310       -5.70060       0.09005008
 C       -1.74270       -7.03650       -3.79240       0.00813115
 C       -1.30010       -5.80950       -3.26420       -0.05399459
 C       -2.12340       -4.70370       -3.84580       0.23944123
 O       -2.05160       -3.52460       -3.65570       -0.32852949
 C       -0.24130       -5.94550       -2.33420       0.02165193
 C       0.10610       -7.28220       -2.18110       -0.04084046
 S       -0.85460       -8.32790       -3.15390       0.04804434
 C       0.39020       -4.87100       -1.62440       -0.01655448
 C       1.06790       -4.98570       -0.39720       -0.01381704
 N       1.51910       -3.73500       -0.03380       -0.08732633
 H       2.02660       -3.51480       0.79160       0.16810959
 C       1.14900       -2.81050       -1.01800       0.03600841
 C       1.45820       -1.40160       -0.95880       -0.03167681
 C       1.99570       -0.77070       0.08980       -0.09310637
 C       0.44940       -3.50270       -2.01020       -0.06452945
 H       -4.46130       -4.03670       -5.76080       0.07773538
 H       0.88770       -7.65270       -1.54320       0.05569124
 H       1.23050       -5.85590       0.20630       0.03531993
 H       1.20160       -0.85390       -1.87500       0.04857847
 H       2.20730       0.28830       0.09030       0.03584346
 H       2.26030       -1.23950       1.02090       0.02764364
 H       0.02330       -3.08220       -2.90030       0.06574178
no frequencies
FC(F)(F)c1cc2c(-c3c(C2=O)c(cs3)c2c[nH]c(C=C)c2)s1
