36
m_24364.out 0.28595
 O       4.04660       -4.63770       3.43390       -0.37619917
 C       4.62570       -4.62430       2.20790       0.36922528
 O       5.80710       -4.46240       2.07220       -0.38811461
 C       3.58370       -4.85430       1.14550       -0.07801732
 C       3.18090       -3.56550       0.55890       0.01380130
 C       3.54830       -3.04240       -0.66150       0.06440719
 N       2.96870       -1.80850       -0.97630       -0.23981617
 C       2.19750       -1.36320       -0.01280       0.11345725
 S       2.09710       -2.46390       1.37740       -0.02468609
 C       1.45940       -0.10880       -0.07250       0.03033930
 C       2.06990       1.12810       0.17260       0.00839517
 C       1.35020       2.32040       0.06510       -0.01752015
 C       0.00090       2.27510       -0.27380       -0.02073527
 C       -0.61910       1.04890       -0.51110       -0.01521459
 C       0.10470       -0.13760       -0.41560       -0.02197371
 N       3.47850       1.20700       0.55310       0.54334256
 O       4.05880       2.26150       0.35590       -0.37352256
 O       3.98890       0.22990       1.07000       -0.37587517
 C       4.44780       -3.63680       -1.64660       0.01248161
 C       5.71140       -4.09280       -1.25850       -0.03536563
 C       6.56220       -4.66660       -2.20060       -0.03760007
 C       6.12260       -4.76160       -3.51420       0.10162461
 Cl       7.16280       -5.46960       -4.67720       -0.17534952
 C       4.87990       -4.30130       -3.93090       -0.03938001
 C       4.03880       -3.72570       -2.98230       -0.02574905
 H       4.67660       -4.45430       4.17560       0.32902855
 H       4.00950       -5.53520       0.36360       0.07408973
 H       2.71340       -5.41580       1.56620       0.07755530
 H       1.84880       3.28020       0.24130       0.08284375
 H       -0.56980       3.20040       -0.35670       0.06058128
 H       -1.67570       1.01750       -0.78010       0.05984710
 H       -0.38200       -1.09240       -0.62130       0.05995315
 H       6.04460       -3.98390       -0.22050       0.07190813
 H       7.54910       -5.02230       -1.90330       0.06138979
 H       4.56690       -4.37680       -4.97130       0.05742478
 H       3.06570       -3.32870       -3.27700       0.05342325
no frequencies
OC(=O)Cc1c(nc(s1)c1c(cccc1)N(=O)=O)c1ccc(Cl)cc1
