44
s_22675.out 0.29708
 C       1.11260       0.10930       -0.71180       0.03591079
 O       -0.10140       -0.24950       -0.05950       -0.28554778
 C       -0.50750       0.59490       0.93180       0.35358332
 O       0.13100       1.56910       1.23640       -0.40764143
 C       -1.76380       0.11740       1.50820       -0.03753689
 C       -2.48770       -0.94080       1.02080       -0.01524557
 S       -3.91460       -1.17730       1.95410       0.02632472
 C       -3.55130       0.14380       3.00990       -0.03247496
 C       -2.37200       0.74220       2.65520       0.00459794
 C       -1.78670       1.88000       3.35770       0.02115653
 C       -2.45040       3.10950       3.36390       -0.03036260
 C       -1.89210       4.19440       4.03350       -0.03067208
 C       -0.67400       4.04690       4.69920       0.01108832
 C       -0.01190       2.81770       4.69960       -0.02821253
 C       -0.56700       1.73480       4.02490       -0.01865730
 C       -0.08200       5.19420       5.40170       0.01526990
 C       -0.20440       5.31580       6.76720       -0.03242774
 C       0.35980       6.42320       7.43930       -0.01466624
 C       1.05720       7.39110       6.75390       -0.01876860
 C       1.62800       8.53210       7.52970       0.25052110
 C       3.06240       8.87470       7.30570       -0.13657381
 O       0.94170       9.10590       8.33960       -0.35775895
 C       1.18770       7.29390       5.34120       0.10074839
 N       1.85190       8.27150       4.63130       -0.24700230
 C       1.93810       8.14720       3.31560       0.14325184
 N       1.42050       7.09470       2.58620       -0.23518788
 C       0.78340       6.14180       3.24150       0.08274639
 C       0.61470       6.18490       4.66380       -0.00901831
 H       1.92180       0.22450       0.01780       0.06371364
 H       1.29420       -0.74020       -1.37930       0.06756043
 H       0.97090       1.03880       -1.27340       0.06195383
 H       -2.22530       -1.55650       0.17220       0.07128124
 H       -4.18880       0.42260       3.83050       0.05646648
 H       -3.39590       3.22010       2.83600       0.03638672
 H       -2.40560       5.15500       4.03880       0.03463884
 H       0.94050       2.70830       5.21660       0.03554356
 H       -0.04700       0.77840       4.00400       0.03789889
 H       -0.74590       4.56480       7.34320       0.04480433
 H       0.22980       6.50870       8.52360       0.05742126
 H       3.17900       9.40950       6.34360       0.09355786
 H       3.45120       9.53410       8.09380       0.06712812
 H       3.69910       7.98410       7.24760       0.05711530
 H       2.46130       8.92800       2.74030       0.05239060
 H       0.38240       5.29890       2.65360       0.05469465
no frequencies
COC(=O)c1cscc1c1ccc(cc1)c1ccc(C(=O)C)c2ncncc12
