32
a_1639.out 0.26206
 F       4.41570       6.46250       -1.82370       -0.19907916
 C       4.32220       7.31580       -0.80790       0.49384177
 F       3.47800       8.26170       -1.21470       -0.19803117
 F       5.51260       7.92380       -0.79140       -0.21003117
 C       3.94560       6.69620       0.51480       -0.01457739
 C       4.30420       7.26390       1.66780       -0.07051499
 C       3.13200       5.47120       0.45290       0.09624046
 C       3.42100       4.36180       1.26010       -0.03728049
 C       2.58450       3.24960       1.19090       -0.00777392
 C       1.49320       3.26130       0.31920       0.01102138
 C       1.30110       4.40560       -0.48380       0.05540778
 N       2.09080       5.48410       -0.41010       -0.22029054
 C       0.56420       2.14970       0.23080       0.01041402
 C       -0.79360       2.30310       -0.00260       -0.03938384
 S       -1.62020       0.79060       -0.06960       0.04719046
 C       -0.19660       -0.08140       0.21170       0.01209541
 C       0.90200       0.78310       0.36120       -0.05848588
 C       2.13220       -0.03520       0.60320       0.23748486
 O       3.24960       0.34510       0.80300       -0.33968175
 C       1.63620       -1.44490       0.56330       -0.05153340
 C       0.25130       -1.44120       0.33490       0.01129626
 S       -0.34880       -3.02720       0.28320       0.04191216
 C       1.22460       -3.70890       0.56300       -0.03013897
 C       2.18840       -2.73450       0.69380       -0.02855130
 H       4.89040       8.17190       1.74950       0.07476880
 H       4.02930       6.86060       2.63580       0.07130254
 H       4.28630       4.36070       1.91830       0.04947472
 H       2.78560       2.37180       1.81140       0.06868258
 H       0.48920       4.46170       -1.21970       0.04960949
 H       -1.31040       3.23910       -0.12240       0.05693356
 H       1.37710       -4.77150       0.61710       0.05744436
 H       3.24060       -2.91460       0.87220       0.06023336
no frequencies
FC(F)(F)C(=C)c1ccc(cn1)c1csc2-c3c(C(=O)c12)ccs3
