20
h_5022.out 0.28223
 F       -3.06780       -1.65540       0.24030       -0.17950333
 C       -1.79310       -1.47980       0.50350       0.14786274
 C       -1.08970       -2.16510       1.45340       -0.05559883
 S       0.55200       -1.62290       1.49130       0.05993714
 C       0.29980       -0.45730       0.20480       -0.00821316
 C       -1.00790       -0.51360       -0.20870       0.14172718
 F       -1.52570       0.23540       -1.15300       -0.17715011
 C       1.35000       0.37960       -0.25340       -0.00050528
 S       1.79000       0.51600       -1.94800       0.07899040
 C       3.07450       1.63760       -1.63280       -0.05417391
 C       3.14710       1.89170       -0.29420       0.10686912
 O       4.05470       2.74620       0.25420       -0.20951382
 C       3.98760       2.92940       1.61780       0.32500946
 O       4.77300       3.69810       2.08550       -0.29195906
 C       2.96280       2.17030       2.44620       0.32434750
 O       2.86460       2.26800       3.63230       -0.29195406
 O       2.07980       1.30520       1.83590       -0.20954423
 C       2.17880       1.18540       0.48540       0.10031713
 H       -1.46160       -2.93440       2.11130       0.09446355
 H       3.69820       2.05240       -2.40760       0.09859157
no frequencies
Fc1csc(c1F)c1scc2oc(=O)c(=O)oc12
