52
m_11679.out 0.27591
 C       0.50440       4.27540       4.78900       -0.03276191
 N       -0.25830       3.27350       4.01410       -0.18002512
 C       0.43130       2.96300       2.73740       0.00969256
 C       -0.44210       1.97540       1.92810       0.00951863
 N       -0.60890       0.72990       2.71650       -0.18597066
 C       -1.36120       -0.30000       1.95690       0.00967259
 C       -0.48670       -0.81960       0.80250       -0.06006979
 C       -0.89690       -2.25500       0.43440       0.00517731
 N       -0.24780       -2.72690       -0.81210       -0.12073553
 C       1.15810       -2.55040       -0.86640       0.05838636
 C       1.92160       -3.08470       0.18520       -0.06112700
 C       3.31210       -3.00140       0.15580       0.01553183
 C       4.10420       -3.53390       1.30120       -0.10474055
 C       3.95640       -2.41520       -0.93710       -0.04859665
 C       3.20730       -1.88530       -1.98190       -0.04124371
 C       1.81630       -1.92410       -1.93490       0.03135021
 S       0.92390       -1.09910       -3.20780       -0.15275260
 C       -0.62270       -1.93690       -3.14280       0.03718100
 C       -1.03730       -2.61100       -1.98630       0.05781147
 C       -2.27760       -3.27570       -1.99270       -0.05133476
 C       -3.08990       -3.22420       -3.11820       -0.03486551
 C       -2.67790       -2.53110       -4.25600       -0.03818270
 C       -1.43790       -1.89900       -4.27120       -0.03961509
 C       -1.30330       1.04350       3.99080       0.00982551
 C       -0.42720       2.02750       4.80190       0.00961853
 H       0.58600       5.20090       4.19510       0.03807714
 H       -0.06220       4.52560       5.70140       0.03770500
 H       1.51560       3.95590       5.08050       0.01656421
 H       0.55050       3.90530       2.16320       0.03292428
 H       1.44260       2.52800       2.88780       0.01984723
 H       -1.41090       2.45620       1.67400       0.01976778
 H       0.07270       1.72900       0.97540       0.03482225
 H       -1.59080       -1.13430       2.65720       0.03102343
 H       -2.33150       0.07220       1.56650       0.01062507
 H       0.58320       -0.79040       1.10080       0.04866742
 H       -0.56890       -0.15760       -0.07890       0.03529727
 H       -2.00200       -2.31760       0.32130       0.04393630
 H       -0.62020       -2.96230       1.24970       0.03925549
 H       1.42650       -3.57150       1.02250       0.03990430
 H       3.84080       -4.57780       1.52510       0.04353094
 H       3.91800       -2.94630       2.21390       0.04547274
 H       5.18650       -3.50730       1.11840       0.03951853
 H       5.04160       -2.37230       -0.97240       0.03470792
 H       3.72530       -1.43410       -2.83160       0.03990471
 H       -2.59040       -3.84890       -1.12150       0.03663120
 H       -4.05210       -3.73510       -3.11370       0.03261141
 H       -3.31860       -2.49200       -5.13340       0.03462421
 H       -1.11690       -1.37590       -5.17470       0.04127515
 H       -1.43140       0.10440       4.56810       0.02945189
 H       -2.31100       1.48540       3.83460       0.01963671
 H       0.54030       1.54280       5.05430       0.02024098
 H       -0.93780       2.27910       5.75440       0.03223202
no frequencies
CN1CCN(CCCN2c3cc(C)ccc3Sc3c2cccc3)CC1
