20
f_907.out 0.26992
 C       3.29760       -2.61170       -0.47040       -0.13477920
 C       1.91430       -2.02910       -0.46600       0.23884823
 O       0.94560       -2.70360       -0.71540       -0.34600458
 C       1.77940       -0.59440       -0.14110       -0.02721134
 C       2.79940       0.28880       0.09330       -0.02675553
 S       2.20550       1.89100       0.43040       0.01412078
 C       0.57030       1.40200       0.26700       0.02186627
 C       0.50040       0.03280       -0.04310       -0.01843115
 C       -0.85280       -0.35780       -0.17700       0.11087465
 C       -1.78820       0.67150       0.02110       -0.00548847
 S       -0.99330       2.16840       0.38680       -0.03241795
 C       -3.07140       0.07990       -0.15990       -0.06054147
 C       -2.82740       -1.24210       -0.44860       0.06663312
 O       -1.47000       -1.54030       -0.46580       -0.17427456
 H       3.27260       -3.67580       -0.75750       0.06707599
 H       3.95320       -2.09430       -1.18190       0.05925508
 H       3.76010       -2.55000       0.52370       0.06099448
 H       3.85440       0.07550       0.08390       0.06255964
 H       -4.01730       0.57550       -0.08390       0.05413585
 H       -3.43530       -2.09060       -0.66410       0.06954016
no frequencies
CC(=O)c1csc2c1c1c(s2)cco1
