18
P_C86084141.out 0.2794
 O       0.64250       -1.15940       0.28380       -0.31838942
 C       0.18130       -0.08150       0.00740       0.21754510
 C       -0.25930       0.87240       1.09570       -0.08711423
 C       -0.88010       2.10920       0.53700       0.01478288
 C       -2.25610       2.02930       0.10200       -0.03325591
 C       -2.91250       3.09990       -0.40970       -0.03442342
 C       -2.22160       4.35250       -0.53580       0.07909916
 N       -2.69480       5.48810       -1.01270       -0.24725428
 S       -1.45440       6.67020       -0.94300       0.27173021
 N       -0.27260       5.63220       -0.26000       -0.24967396
 C       -0.80570       4.43600       -0.09470       0.07991256
 C       -0.17420       3.26800       0.44660       -0.04708539
 H       0.06890       0.24280       -1.03360       0.03285611
 H       -0.95860       0.34590       1.78610       0.08429961
 H       0.61570       1.10530       1.74560       0.08295138
 H       -2.75990       1.06640       0.20500       0.04574517
 H       -3.95360       3.05900       -0.73390       0.05557569
 H       0.86250       3.36060       0.77180       0.05269875
no frequencies
O=CCc1ccc2nsnc2c1
