38
s_29296.out 0.27132
 C       1.56050       -0.20460       -0.01650       0.04389634
 O       0.14050       -0.10940       0.04020       -0.32266763
 C       -0.30280       0.56830       1.15300       0.13048220
 C       -0.48200       1.98780       1.01170       -0.04747147
 C       -1.01500       2.71390       2.03000       -0.03308020
 C       -1.39360       2.04610       3.23160       -0.01181048
 C       -1.95780       2.46140       4.41730       0.05776099
 O       -2.14510       1.39050       5.25380       -0.17939828
 C       -1.69510       0.26660       4.60310       0.06028993
 C       -1.21340       0.60320       3.35880       -0.01092904
 C       -0.63610       -0.12970       2.28040       -0.01303981
 C       -0.40950       -1.56510       2.40470       0.01492732
 C       0.63340       -2.05720       3.15060       -0.02549321
 C       0.83830       -3.45790       3.22210       -0.00546268
 C       1.88260       -4.06190       3.96980       -0.01610870
 C       2.00480       -5.42610       3.97000       -0.03842586
 C       1.07490       -6.20220       3.21220       0.06563368
 N       0.09050       -5.67960       2.50550       -0.21348324
 C       -0.05020       -4.30850       2.50060       0.15771031
 N       -1.09930       -3.80280       1.76240       -0.22011836
 C       -1.26610       -2.49640       1.73290       0.08228502
 C       -2.45790       -1.99080       0.94290       0.25453463
 C       -2.32990       -2.09370       -0.53620       -0.13842901
 O       -3.40920       -1.54000       1.52010       -0.34010535
 H       1.94510       -0.76110       0.84420       0.03051807
 H       1.72810       -0.76280       -0.94590       0.06068238
 H       2.00860       0.79150       -0.07340       0.03977384
 H       -0.18650       2.43780       0.06630       0.04954904
 H       -1.16770       3.78870       1.95710       0.04132325
 H       -2.27420       3.39100       4.82530       0.05976355
 H       -1.81580       -0.63460       5.15750       0.05781763
 H       1.30730       -1.38730       3.68670       0.03782839
 H       2.56780       -3.42740       4.53280       0.03852589
 H       2.78580       -5.93300       4.52950       0.04194306
 H       1.15410       -7.29860       3.19630       0.05017318
 H       -3.20700       -1.67650       -1.05160       0.06868787
 H       -2.22030       -3.14690       -0.84700       0.08442716
 H       -1.44020       -1.55470       -0.90270       0.08748962
no frequencies
COc1ccc2cocc2c1c1cc2cccnc2nc1C(=O)C
