32
s_30566.out 0.28301
 C       1.16770       -0.85620       0.30040       0.02676357
 O       0.65620       0.47970       0.23980       -0.25240435
 C       -0.03540       0.90920       1.30930       0.23128479
 N       -0.17490       0.12250       2.36960       -0.29615607
 C       -0.89880       0.60490       3.43290       0.09870440
 C       -1.06860       -0.20170       4.59120       -0.04747371
 C       -1.80140       0.30670       5.64100       0.04974945
 N       -2.37810       1.55030       5.62080       -0.22794783
 C       -2.22760       2.31030       4.54740       0.05795695
 C       -1.48800       1.89630       3.40280       -0.01751411
 C       -1.31800       2.70420       2.24670       -0.02597279
 C       -0.58740       2.23780       1.18260       -0.00651993
 C       -0.39330       3.00230       -0.02670       -0.02686228
 C       0.84740       3.05280       -0.75090       -0.05334836
 C       0.81560       3.81650       -1.88370       0.02385554
 C       1.90810       4.03060       -2.79740       -0.02626858
 C       1.84340       4.70150       -3.95200       -0.08615863
 S       -0.78050       4.53370       -2.10170       -0.08568335
 C       -1.36980       3.75660       -0.63340       0.15296108
 O       -2.59440       3.88280       -0.10570       -0.36403010
 H       0.35150       -1.57330       0.44430       0.06354342
 H       1.63070       -0.96380       -0.68700       0.06840822
 H       1.90060       -0.94840       1.10930       0.06365129
 H       -0.61880       -1.19120       4.61830       0.04995303
 H       -1.96920       -0.25600       6.56650       0.04213020
 H       -2.70660       3.29780       4.57030       0.04024604
 H       -1.77720       3.69630       2.21540       0.05188881
 H       1.71970       2.51270       -0.40020       0.05509115
 H       2.85650       3.57890       -2.47520       0.04287430
 H       2.69610       4.82840       -4.60210       0.03769672
 H       0.95940       5.17280       -4.34930       0.04385096
 H       -3.25390       4.26050       -0.74490       0.31573019
no frequencies
COc1nc2ccncc2cc1c1cc(C=C)sc1O
