31
P_C43518490.out 0.24464
 N       -5.44240       5.84010       3.45490       -0.27603103
 C       -4.46700       5.14940       2.73310       0.05631211
 C       -3.12490       5.22580       3.01410       -0.06467944
 C       -2.14570       4.45090       2.32470       -0.06587732
 C       -2.46430       3.57470       1.31330       0.05007571
 N       -1.54930       2.91940       0.49650       -0.18626259
 C       -0.17200       2.75540       0.98590       0.00025078
 C       0.62930       1.98850       -0.08940       0.10585879
 C       2.10290       1.81730       0.31650       -0.06486548
 C       2.23260       0.33430       0.71080       -0.06051149
 C       0.82000       -0.24170       0.53630       0.07794034
 O       0.07130       0.69290       -0.23250       -0.32934853
 C       -3.86380       3.42350       0.99320       0.05414397
 N       -4.52780       2.66050       0.12410       -0.12883910
 O       -5.84600       2.95060       0.24160       -0.03819406
 N       -6.06190       3.89840       1.18780       -0.13277784
 C       -4.87810       4.23250       1.70350       0.05508549
 H       -6.36550       5.85620       3.06270       0.17294500
 H       -5.16520       6.69150       3.90100       0.16147228
 H       -2.76960       5.89600       3.79560       0.03237015
 H       -1.11090       4.59070       2.62850       0.03148719
 H       -1.90080       2.11010       -0.01710       0.18198021
 H       -0.13850       2.20870       1.95380       0.03650530
 H       0.27860       3.76050       1.14730       0.04269674
 H       0.49360       2.44250       -1.09490       0.04928553
 H       2.39290       2.48450       1.14260       0.03830544
 H       2.77510       2.06560       -0.52190       0.04239920
 H       2.59810       0.21600       1.74240       0.03830385
 H       2.95930       -0.18470       0.06440       0.04222158
 H       0.29470       -0.38630       1.49420       0.02917211
 H       0.78430       -1.16970       -0.05550       0.04857511
no frequencies
Nc1ccc(NC[C@H]2CCCO2)c2nonc12
