24
f_2724.out 0.26099
 O       1.14900       0.00030       -0.76260       -0.48118250
 S       0.23670       -0.02830       0.39690       0.37483464
 C       -0.99860       -1.29730       0.15000       -0.03198787
 C       -0.94250       -2.64550       0.07590       -0.01975055
 S       -2.56180       -3.28180       -0.11250       0.00690220
 C       -3.29800       -1.70270       -0.09400       -0.02763475
 C       -2.33470       -0.75040       0.04710       -0.00996344
 C       -2.36790       0.70020       0.07950       0.00754090
 C       -3.45620       1.49430       -0.00100       -0.03844800
 C       -3.30000       2.93810       -0.00120       -0.00049033
 C       -4.31430       3.83150       -0.06750       -0.14987845
 Si       -3.52860       5.48170       -0.06560       0.44702421
 C       -1.81300       4.85340       0.04050       -0.14651836
 C       -1.91570       3.50520       0.06410       0.00059807
 C       -0.79320       2.57980       0.15420       -0.02645802
 C       -1.02370       1.25940       0.18170       -0.01844711
 H       -0.07850       -3.28760       0.10720       0.06284607
 H       -4.35850       -1.55820       -0.19260       0.05600709
 H       -4.46580       1.09620       -0.07670       0.03551457
 H       -5.36960       3.59300       -0.11910       0.02986159
 H       -3.90220       6.28470       1.08590       -0.07579640
 H       -3.77250       6.21060       -1.29880       -0.07427294
 H       -0.89290       5.42520       0.07490       0.03274117
 H       0.20640       3.01810       0.19150       0.04695823
no frequencies
O=s1c2cscc2c2cc3[CH][SiH2][CH]c3cc12
