29
f_8586.out 0.28889
 S       -4.63820       1.23600       -0.66000       -0.01903150
 C       -4.13330       1.91150       0.85930       -0.02066436
 C       -2.82110       1.63070       1.09730       -0.04899835
 C       -2.21160       0.85470       0.04680       -0.00641170
 C       -3.07370       0.56320       -0.97490       -0.02705314
 C       -0.81650       0.43880       0.10540       0.01669967
 C       0.19260       1.37920       0.21980       -0.03561174
 C       1.53430       0.96380       0.27890       -0.00055346
 C       1.85940       -0.40600       0.23210       0.01736721
 C       0.81730       -1.34980       0.11520       -0.03398027
 C       -0.49610       -0.93430       0.04880       -0.02888484
 C       3.24940       -0.77580       0.30760       -0.01267914
 C       3.71860       -2.11390       0.28320       0.05506518
 N       5.00770       -2.43250       0.35680       -0.22377704
 C       5.93120       -1.43750       0.46030       0.05212310
 C       5.58830       -0.09650       0.49290       -0.04318366
 C       4.22000       0.24700       0.41610       0.09540162
 N       3.87400       1.59580       0.45150       -0.23488490
 C       2.61350       1.92600       0.38810       0.06845402
 H       -4.80620       2.46530       1.48860       0.04879770
 H       -2.26560       1.93170       1.97350       0.03752219
 H       -2.85240       0.00890       -1.86940       0.04608507
 H       -0.04850       2.44190       0.25870       0.03825341
 H       1.05210       -2.41300       0.07740       0.03976017
 H       -1.30340       -1.66270       -0.04140       0.03813213
 H       3.02060       -2.95760       0.20130       0.04062590
 H       6.97190       -1.77780       0.51700       0.04454505
 H       6.33530       0.69170       0.57580       0.05521956
 H       2.37330       2.99960       0.41920       0.04166213
no frequencies
s1ccc(c1)c1cc2c(cc1)c1cnccc1nc2
