26
P_C43518475.out 0.24659
 C       0.84610       0.66800       -0.58550       0.02835541
 O       -0.26130       0.25330       0.20840       -0.26576566
 C       -0.16740       0.47200       1.54280       0.35377135
 O       0.82430       0.87860       2.08230       -0.38046528
 C       -1.46730       0.07220       2.21640       -0.02054444
 N       -2.59670       0.66520       1.48780       -0.18804966
 C       -3.88610       0.34610       1.92930       0.04714510
 C       -4.22340       -0.02860       3.20670       -0.06160243
 C       -5.57620       -0.16150       3.64020       -0.06635352
 C       -6.64900       0.06000       2.80960       0.06068191
 N       -7.96910       -0.13290       3.19200       -0.26754153
 C       -6.36710       0.42830       1.44560       0.05542666
 N       -7.13330       0.69580       0.38730       -0.12778113
 O       -6.31380       0.96280       -0.65800       -0.03555560
 N       -5.00920       0.87870       -0.29750       -0.13134489
 C       -4.96460       0.55940       0.99730       0.05494225
 H       1.78570       0.27100       -0.18660       0.07045171
 H       0.61570       0.23810       -1.56800       0.07545499
 H       0.87440       1.76220       -0.62370       0.06612129
 H       -1.52130       -1.04140       2.28150       0.06154499
 H       -1.46200       0.47040       3.26480       0.07649038
 H       -2.47500       0.67400       0.47330       0.18009684
 H       -3.45310       -0.22710       3.95060       0.03649409
 H       -5.73960       -0.45180       4.67670       0.03545366
 H       -8.68840       0.21090       2.58600       0.17688944
 H       -8.18640       -0.13750       4.16660       0.16568407
no frequencies
COC(=O)CNc1ccc(N)c2nonc12
