55
m_4852.out 0.3227
 C       1.43070       -0.62970       -0.37900       -0.10033600
 C       0.01800       -0.17570       -0.26590       -0.00288667
 C       -0.94520       -0.99070       0.32680       -0.08239688
 C       -2.26930       -0.54120       0.41440       0.14013863
 O       -3.15010       -1.37580       1.00290       -0.38567622
 C       -2.65180       0.69980       -0.09130       -0.08545386
 C       -4.02080       1.24630       -0.12490       0.13568669
 O       -4.88240       0.73230       0.88480       -0.35756376
 C       -5.91330       1.71630       1.07590       0.06834623
 C       -5.44640       3.07170       0.43850       0.00680459
 C       -5.58320       4.23310       1.42710       -0.05900326
 C       -7.03970       4.65300       1.62320       -0.05422276
 C       -7.64920       5.06080       0.28070       -0.06177989
 C       -7.61020       3.90860       -0.74180       0.02190739
 C       -8.58120       2.79260       -0.30910       -0.10846107
 C       -8.15240       4.44400       -2.08530       -0.10951682
 C       -6.16310       3.34950       -0.90880       -0.02648766
 C       -5.29820       4.28530       -1.78040       -0.06370724
 C       -3.93100       3.67580       -2.10590       -0.06420111
 C       -3.12960       3.48690       -0.81720       0.13867218
 C       -2.52700       4.79150       -0.29640       -0.10751439
 O       -1.94030       2.73750       -1.20920       -0.27608474
 C       -1.68220       1.53230       -0.66720       0.11780212
 C       -0.35760       1.08330       -0.74920       0.12050887
 F       0.54050       1.88370       -1.30060       -0.20924811
 C       -3.94270       2.74820       0.22890       -0.03064594
 H       2.11010       0.02440       0.19040       0.05476342
 H       1.77680       -0.61430       -1.42470       0.05502823
 H       1.57690       -1.65230       -0.00570       0.04462853
 H       -0.69000       -1.96880       0.72380       0.06329472
 H       -4.05230       -0.96270       1.08740       0.32598690
 H       -4.51360       1.04770       -1.10700       0.01474461
 H       -6.81310       1.29540       0.60860       0.04361208
 H       -6.03510       1.77710       2.16690       0.04142486
 H       -4.99760       5.09950       1.05830       0.03740117
 H       -5.13160       3.96430       2.40190       0.02977044
 H       -7.09920       5.49570       2.33770       0.03093436
 H       -7.62190       3.83240       2.08160       0.03080015
 H       -8.69250       5.39610       0.42480       0.03438128
 H       -7.10590       5.93540       -0.12380       0.03271092
 H       -9.61930       3.14460       -0.32790       0.03768319
 H       -8.52020       1.92840       -0.97830       0.03242466
 H       -8.39180       2.45090       0.71250       0.03641198
 H       -8.03070       3.70720       -2.88580       0.03611497
 H       -7.65770       5.37010       -2.39340       0.03537473
 H       -9.22150       4.67300       -2.01410       0.03850006
 H       -6.25150       2.37740       -1.45570       0.03011901
 H       -5.81190       4.50070       -2.73690       0.04559124
 H       -5.17690       5.26150       -1.27650       0.03580777
 H       -3.37590       4.31960       -2.81430       0.04750613
 H       -4.04660       2.70570       -2.62780       0.03928191
 H       -1.96790       4.63370       0.63420       0.04564375
 H       -1.81280       5.20680       -1.02240       0.05903323
 H       -3.29700       5.54670       -0.11260       0.04040766
 H       -3.42400       2.84340       1.21880       0.03593773
no frequencies
Cc1cc(O)c2[C@H]3OC[C@]45CCCC(C)(C)[C@H]4CC[C@](C)(Oc2c1F)[C@H]35
