26
s_32700.out 0.29973
 C       1.56530       0.04380       0.54590       -0.04311930
 S       -0.08690       -0.06010       -0.22580       -0.20676936
 C       -0.62540       1.59190       -0.16900       0.02199206
 C       -0.93930       2.37580       -1.28300       -0.01525295
 N       -1.34270       3.61990       -0.83910       -0.09736880
 C       -1.27890       3.64830       0.56000       0.05176989
 C       -1.61560       4.78470       1.29520       -0.02393776
 C       -1.89800       5.75760       1.96110       -0.09825886
 C       -0.84060       2.38670       0.99660       -0.01524040
 C       -0.65030       1.97870       2.35360       -0.02926367
 C       -1.16630       0.81930       2.95780       -0.01401026
 N       -0.76700       0.78530       4.27610       -0.09921962
 C       0.01790       1.91550       4.55580       0.02829948
 C       0.57880       2.15890       5.80610       -0.02283150
 C       1.07970       2.38600       6.88650       -0.10140647
 C       0.08530       2.65190       3.36470       0.13887340
 F       0.73950       3.77350       3.21050       -0.21011827
 H       1.92540       -0.97330       0.72920       0.05074844
 H       1.52880       0.57990       1.50240       0.04652253
 H       2.27880       0.55820       -0.10430       0.04375072
 H       -0.89710       2.12790       -2.32790       0.04234845
 H       -1.63970       4.38150       -1.40620       0.16617303
 H       -2.13290       6.58200       2.53030       0.08094457
 H       -1.77730       0.05150       2.51600       0.05264420
 H       -0.99260       0.08590       4.94590       0.17103902
 H       1.50590       2.58120       7.80180       0.08169144
no frequencies
CSc1c[nH]c(C#C)c1c1c[nH]c(C#C)c1F
