30
s_26959.out 0.24354
 C       1.21240       -0.55010       0.08960       0.03775635
 O       -0.07950       0.05140       0.01140       -0.30543047
 C       -0.43740       0.69890       1.16670       0.11812694
 C       -0.55350       2.06170       1.13170       -0.05629306
 C       -1.03130       2.74180       2.27940       -0.03463069
 C       -1.23850       4.12990       2.42480       0.09425990
 N       -1.02010       5.07410       1.48290       -0.22958980
 S       -1.82960       4.50420       4.02810       0.01328132
 C       -1.82300       2.83220       4.50590       -0.02214446
 C       -2.26000       2.47560       5.79210       0.20083701
 N       -2.67320       3.20870       6.83750       -0.20567367
 N       -2.99720       2.37240       7.86060       -0.18661697
 C       -2.77960       1.13640       7.43480       0.36286199
 F       -2.91330       -0.02320       7.99640       -0.15820681
 O       -2.31190       1.11500       6.12650       -0.25774044
 C       -1.36660       2.01160       3.47140       0.00437934
 C       -1.22930       0.59880       3.47930       -0.05997007
 C       -0.78190       -0.03590       2.35000       0.12713276
 O       -0.56840       -1.38440       2.42490       -0.29684382
 C       -1.43470       -2.14500       1.58340       0.03662503
 H       1.25620       -1.28850       0.89850       0.05526975
 H       1.31010       -1.03550       -0.88820       0.05979812
 H       1.97950       0.21830       0.22160       0.03496869
 H       -0.28570       2.61230       0.23400       0.04711810
 H       -1.20190       6.04320       1.64080       0.19390302
 H       -0.69810       4.81790       0.57100       0.19561233
 H       -1.48020       0.02480       4.37120       0.07457749
 H       -1.05700       -3.16570       1.72030       0.06184823
 H       -2.46550       -2.05880       1.94290       0.03872041
 H       -1.35890       -1.83530       0.53580       0.05606349
no frequencies
COc1cc2c(N)sc(c3nnc(F)o3)c2cc1OC
