32
s_16416.out 0.28517
 C       1.16070       0.25920       -0.63390       -0.03466650
 N       -0.05170       -0.21150       0.04730       -0.18041684
 C       -0.67430       -1.34890       -0.40810       0.07786423
 S       0.18090       -2.71350       -1.14740       -0.08130533
 C       -1.27310       -3.67220       -1.20730       -0.04493484
 C       -2.33020       -2.98880       -0.68730       0.04369370
 S       -3.93300       -3.68900       -0.57500       -0.25261235
 C       -2.01030       -1.66220       -0.24220       -0.05638034
 C       -2.98970       -0.73330       0.30460       0.00470495
 C       -3.00960       -0.50680       1.68360       -0.04483086
 C       -3.92660       0.38520       2.22870       -0.03582851
 C       -4.83740       1.04020       1.40310       -0.04311425
 C       -4.83490       0.81160       0.02650       0.01070961
 C       -5.82780       1.49640       -0.84990       -0.10212691
 C       -3.89430       -0.06650       -0.53150       -0.00142473
 C       -3.86790       -0.27480       -1.98390       -0.02036541
 C       -2.85160       0.11710       -2.75300       -0.08277793
 H       1.47660       1.21840       -0.18770       0.04744670
 H       1.98850       -0.45810       -0.47950       0.06062044
 H       1.02190       0.40980       -1.71810       0.03942720
 H       -0.67410       0.53410       0.35770       0.16172443
 H       -1.26320       -4.66640       -1.61590       0.04566859
 H       -4.60110       -2.67960       0.00620       0.16679317
 H       -2.30570       -1.03790       2.32360       0.03169868
 H       -3.93200       0.56850       3.30190       0.02892358
 H       -5.55290       1.73570       1.83630       0.03037608
 H       -6.55180       0.77610       -1.26170       0.04502059
 H       -6.40170       2.26810       -0.32150       0.03862934
 H       -5.33910       1.98670       -1.70590       0.04174145
 H       -4.75030       -0.77140       -2.39480       0.04185250
 H       -2.82240       -0.02820       -3.82160       0.03414240
 H       -1.96700       0.60070       -2.37000       0.02974716
no frequencies
CNc1scc(S)c1c1cccc(C)c1C=C
