25
h_2530.out 0.24074
 C       -3.32790       0.93980       -4.08120       0.20649115
 O       -4.29190       1.80830       -3.43300       -0.28470829
 C       -3.69310       2.19930       -2.27340       0.11622319
 C       -4.05240       2.98440       -1.24130       -0.05806101
 S       -2.72410       2.98940       -0.07480       -0.07669190
 C       -1.67420       1.91690       -1.05960       -0.00815772
 C       -2.36690       1.60490       -2.17850       0.10928248
 O       -2.12060       0.84660       -3.28250       -0.27822354
 C       -0.39670       1.51930       -0.60060       -0.01050871
 S       0.02120       -0.19690       -0.50180       -0.08671554
 C       1.61210       0.14420       0.13710       -0.05659557
 C       1.81250       1.48520       0.25850       0.04605057
 N       2.99030       2.12370       0.65500       -0.14980004
 C       2.95460       3.52480       0.78850       -0.00535093
 C       1.89020       4.26140       0.38470       -0.00762688
 N       0.68840       3.66750       -0.04130       -0.13397211
 C       0.65280       2.28720       -0.16440       0.04489594
 H       -3.76930       -0.06510       -4.13390       0.06699888
 H       -3.05760       1.40420       -5.03890       0.06586519
 H       -4.95870       3.53170       -1.07820       0.06667071
 H       2.29920       -0.64580       0.36790       0.04352298
 H       3.63770       1.60540       1.22880       0.15558816
 H       3.86790       3.97690       1.17580       0.03610521
 H       1.88370       5.35080       0.41310       0.03743461
 H       0.02430       4.22380       -0.55810       0.16128318
no frequencies
C1Oc2csc(c2O1)c1scc2NC=CNc12
