40
s_20287.out 0.27092
 C       0.88100       -0.07490       -0.95360       0.03576726
 O       -0.21760       -0.43060       -0.12070       -0.27685610
 C       -1.04630       0.59000       0.22850       0.35029030
 O       -0.84680       1.72490       -0.13070       -0.41593461
 C       -2.16900       0.10500       1.04570       -0.02087656
 C       -2.84230       1.02580       1.85090       -0.01507988
 C       -3.97980       0.62800       2.54850       -0.01410750
 C       -4.44490       -0.68280       2.41910       0.02279926
 C       -3.72650       -1.62060       1.67040       -0.03382429
 C       -2.58600       -1.22560       0.97980       -0.02398377
 C       -5.75670       -1.04040       2.95490       -0.00149886
 C       -6.06660       -1.43470       4.21980       -0.02685601
 S       -7.77620       -1.72430       4.36760       -0.01265451
 C       -8.07900       -1.31250       2.70560       -0.02947198
 C       -6.91800       -0.97000       2.07830       -0.00358755
 C       -6.71950       -0.56100       0.71570       -0.02208901
 C       -6.40910       -1.32970       -0.34200       -0.03918099
 C       -5.89960       -0.57310       -1.47450       -0.01122000
 C       -5.34920       -0.93020       -2.66680       -0.03014154
 S       -4.70020       0.47580       -3.45550       0.00490255
 C       -5.19080       1.56580       -2.15710       0.05645191
 S       -4.82310       3.26980       -2.21410       -0.14177063
 C       -3.77460       3.50760       -0.74750       -0.05473905
 C       -5.83960       0.84950       -1.21100       -0.05216614
 S       -6.72510       1.22070       0.29720       0.41411277
 O       -5.83930       1.94660       1.23360       -0.48342119
 H       1.50710       0.67590       -0.45940       0.06372612
 H       1.41520       -1.02370       -1.07350       0.06683929
 H       0.51650       0.30620       -1.91350       0.06177072
 H       -2.49700       2.06060       1.91010       0.05837129
 H       -4.53880       1.35440       3.14400       0.06484472
 H       -4.07750       -2.64820       1.60800       0.03504094
 H       -2.03180       -1.94560       0.37610       0.05026395
 H       -5.39110       -1.56010       5.04720       0.05326316
 H       -9.06500       -1.33880       2.27930       0.05102574
 H       -6.44140       -2.41170       -0.37010       0.04979776
 H       -5.28220       -1.91470       -3.09260       0.06215265
 H       -3.42900       4.54770       -0.73860       0.06348714
 H       -2.88630       2.85940       -0.75520       0.06923737
 H       -4.31460       3.31890       0.19470       0.07531526
no frequencies
COC(=O)c1ccc(cc1)c1cscc1c1cc2csc(SC)c2s1=O
