37
s_23185.out 0.2607
 C       1.25410       0.11650       -0.13340       0.03763075
 O       -0.04410       -0.21930       0.34570       -0.28417283
 C       -0.51050       0.56150       1.36230       0.34718335
 O       0.14710       1.46430       1.82230       -0.42030177
 C       -1.83550       0.13200       1.75750       -0.03270224
 S       -2.69090       0.84920       3.07540       0.05709646
 C       -4.07480       -0.17350       2.92180       -0.00120193
 C       -5.23340       -0.10480       3.77290       -0.00344987
 C       -5.16800       -0.34030       5.13060       0.13014609
 O       -4.00010       -0.54090       5.80780       -0.29768208
 C       -3.42250       -1.82890       5.59030       0.03769636
 C       -6.34990       -0.27340       5.94400       0.04762020
 N       -7.53820       -0.02810       5.43570       -0.22478029
 C       -7.63800       0.18760       4.08300       0.07072948
 C       -8.93970       0.43220       3.52410       0.05955913
 N       -9.11970       0.66430       2.23840       -0.21263398
 C       -8.03050       0.69030       1.40490       0.04860325
 C       -6.74420       0.46380       1.84280       -0.04537065
 C       -6.51970       0.18330       3.21420       0.00663728
 C       -3.87870       -1.03090       1.86060       0.02789808
 N       -4.56320       -2.06460       1.23310       -0.11404376
 C       -3.76450       -2.52530       0.17430       0.01105053
 C       -2.56740       -1.83570       0.12940       -0.06128997
 C       -2.58870       -0.86850       1.18400       -0.00939038
 H       1.99460       0.00190       0.66540       0.06221680
 H       1.41410       -0.61240       -0.93580       0.06482388
 H       1.26280       1.14260       -0.51670       0.06246278
 H       -2.44540       -1.73070       6.08260       0.07195590
 H       -4.03290       -2.59290       6.07990       0.04192219
 H       -3.29630       -2.05200       4.52690       0.03820656
 H       -6.27420       -0.43230       7.02780       0.06503296
 H       -9.82320       0.42720       4.17830       0.06671893
 H       -8.26770       0.91000       0.35710       0.04884494
 H       -5.89950       0.51450       1.15680       0.03948539
 H       -5.50220       -2.32370       1.42470       0.16270269
 H       -4.11530       -3.32260       -0.45820       0.04634621
 H       -1.75590       -1.97500       -0.55510       0.05444956
no frequencies
COC(=O)c1sc(c2c(OC)cnc3cnccc23)c2[nH]ccc12
