33
m_4331.out 0.28646
 C       -2.88280       0.03700       8.98000       -0.10648499
 C       -2.57140       -0.58300       7.66680       0.00974582
 C       -2.86550       0.08560       6.47280       0.08123991
 Cl       -3.61150       1.61800       6.59600       -0.14687072
 C       -2.59690       -0.44490       5.21240       -0.00895810
 C       -2.00700       -1.71460       5.14630       -0.03511612
 C       -1.70060       -2.41460       6.30710       -0.04437691
 C       -1.98680       -1.84190       7.54150       0.09229154
 Cl       -1.59890       -2.75380       8.92990       -0.14203657
 C       -2.95580       0.27980       3.95510       0.03020661
 C       -4.00480       -0.48590       3.16190       -0.01134215
 S       -3.81040       -0.22280       1.35240       -0.07957776
 C       -2.11250       0.22660       1.37210       0.06613251
 S       -1.40250       0.51000       2.95210       -0.08614730
 C       -1.39150       0.35020       0.23430       0.03069591
 C       -0.02100       0.73890       0.22490       0.10443377
 N       1.09250       1.05270       0.20760       -0.21567451
 N       -1.94600       0.08290       -1.04110       -0.02159554
 C       -2.81410       0.91980       -1.75070       -0.01804748
 C       -3.07860       0.25710       -2.94610       0.01601613
 N       -2.38970       -0.95040       -2.97450       -0.24929252
 C       -1.70440       -1.05130       -1.83160       0.07626255
 H       -2.60010       -0.57770       9.84680       0.06454600
 H       -2.36000       1.00120       9.10700       0.06598984
 H       -3.96260       0.23790       9.08850       0.06490866
 H       -1.78100       -2.16920       4.17850       0.06349595
 H       -1.24090       -3.40430       6.24330       0.07177649
 H       -3.32790       1.31950       4.15750       0.07119219
 H       -3.97230       -1.57560       3.36900       0.06166108
 H       -5.02780       -0.16060       3.44390       0.06761400
 H       -3.14770       1.86330       -1.37500       0.03804461
 H       -3.69730       0.55300       -3.77080       0.04437928
 H       -1.06240       -1.86000       -1.53100       0.04488780
no frequencies
Cc1c(Cl)c(ccc1Cl)[C@@H]1CS/C(=C(/C#N)\n2ccnc2)/S1
