34
P_C61283409.out 0.25875
 C       -6.13460       2.85310       -6.13980       -0.03412746
 N       -4.90750       3.04910       -5.33890       -0.17924563
 C       -4.29150       1.73990       -5.00450       0.01005988
 C       -2.95490       1.97450       -4.28090       -0.06401895
 C       -3.19240       2.81190       -3.02130       0.11389397
 C       -3.89760       4.12760       -3.36780       -0.06469676
 C       -5.21010       3.82010       -4.10640       0.00777625
 O       -1.92340       3.26010       -2.51310       -0.29767579
 C       -1.18650       2.32570       -1.85970       0.12068136
 C       0.10210       2.11010       -2.26120       -0.05232340
 C       0.99970       1.27480       -1.53270       -0.07015562
 C       0.61820       0.61500       -0.38560       0.06761295
 N       1.43540       -0.26010       0.30100       -0.25630544
 C       -0.73330       0.80940       0.08310       0.05279385
 N       -1.40600       0.35560       1.14090       -0.12171852
 O       -2.65700       0.86480       1.08190       -0.03430237
 N       -2.81870       1.65940       -0.00930       -0.12286382
 C       -1.66500       1.67760       -0.67550       0.05223635
 H       -6.92480       2.27610       -5.63730       0.01659120
 H       -5.86930       2.34090       -7.07980       0.03856999
 H       -6.54400       3.83900       -6.41680       0.03947070
 H       -4.10530       1.19600       -5.95630       0.03559150
 H       -4.95320       1.09690       -4.38590       0.01123937
 H       -2.47830       1.01080       -4.03310       0.02889545
 H       -2.25190       2.50900       -4.95220       0.05482356
 H       -3.73770       2.24590       -2.23790       0.03599810
 H       -3.23760       4.74940       -4.00680       0.06105356
 H       -4.09060       4.71870       -2.45490       0.04764821
 H       -5.91670       3.29250       -3.43040       0.01332940
 H       -5.69720       4.77350       -4.40720       0.03686292
 H       0.47250       2.60100       -3.16450       0.05702488
 H       2.01090       1.16780       -1.91820       0.04127481
 H       1.13830       -0.60670       1.19100       0.18269018
 H       2.41450       -0.27050       0.11540       0.17131532
no frequencies
CN1CCC(CC1)Oc1ccc(N)c2nonc12
