32
s_2304.out 0.2413
 C       -5.62110       -8.28580       -0.55610       -0.13424091
 C       -4.88620       -7.24030       -1.34190       0.23669305
 O       -4.39080       -7.50440       -2.41140       -0.35648453
 C       -4.77900       -5.86850       -0.77500       -0.00830335
 C       -3.86600       -4.97230       -1.43730       -0.01769789
 C       -3.69600       -3.68750       -1.02160       -0.02916006
 C       -4.43240       -3.22960       0.10730       -0.00915857
 C       -4.51010       -2.02840       0.78900       0.09554515
 O       -5.42850       -2.14280       1.82930       -0.18837227
 C       -5.92620       -3.41170       1.80360       0.06707493
 C       -5.35870       -4.13310       0.77300       -0.00617033
 C       -5.51470       -5.46520       0.30060       -0.02704503
 C       -3.89220       -0.75850       0.66710       0.00354491
 S       -4.80380       0.73420       0.74390       0.08758102
 C       -3.43470       1.73260       0.49540       -0.02537343
 C       -2.31250       0.95590       0.35350       -0.02450326
 C       -0.91410       1.20550       0.13200       0.17786873
 F       -0.45380       2.42270       -0.00150       -0.15486558
 C       -0.14430       0.07950       0.07400       -0.01589224
 S       -1.10460       -1.40450       0.30280       0.02532056
 C       -2.57160       -0.46490       0.45700       0.00182981
 N       1.26630       0.05000       -0.14070       0.54669765
 O       1.83660       1.12490       -0.23870       -0.37283604
 O       1.82480       -1.03220       -0.21650       -0.37629225
 H       -5.49470       -9.28060       -1.01390       0.06806428
 H       -5.26250       -8.35540       0.47830       0.05890779
 H       -6.69980       -8.08100       -0.53170       0.06460038
 H       -3.31460       -5.36540       -2.29870       0.07105140
 H       -3.02280       -3.00100       -1.53170       0.04363000
 H       -6.64210       -3.61240       2.56770       0.06737491
 H       -6.22160       -6.11680       0.81180       0.04842250
 H       -3.48070       2.81150       0.46180       0.08218867
no frequencies
CC(=O)c1ccc2c(occ2c1)c1scc2c(F)c(sc12)N(=O)=O
