138
m_14455.out 0.31226
 C       -5.45640       -14.60420       -5.82440       0.03512220
 O       -4.57120       -14.17050       -4.79780       -0.28411808
 C       -4.71420       -12.87530       -4.39630       0.35037206
 O       -5.53610       -12.14220       -4.88000       -0.40335643
 C       -3.74280       -12.57850       -3.32630       -0.01804059
 C       -3.37980       -13.50470       -2.42160       -0.02147968
 C       -2.47160       -13.17110       -1.33550       -0.05126578
 C       -2.69540       -13.48250       -0.04720       0.01550702
 C       -3.85560       -14.30260       0.40570       -0.10323328
 C       -1.82790       -12.97230       1.01250       -0.04953456
 C       -1.40370       -11.69960       1.03750       -0.03288105
 C       -0.65720       -11.16930       2.16950       -0.03269711
 C       -0.93510       -9.99250       2.74620       -0.02067615
 C       -1.95600       -9.00710       2.30920       -0.10037109
 C       -0.19320       -9.55840       3.95580       0.35729187
 O       0.72430       -8.78710       3.99750       -0.35019408
 O       -0.62880       -10.03160       5.17510       -0.25590113
 C       -1.57380       -11.07500       5.20560       0.23892052
 O       -0.82670       -12.20800       4.77950       -0.33662017
 C       -1.47770       -13.45190       4.93370       0.09532599
 C       -0.47720       -14.45350       4.33210       0.07342368
 O       -1.19860       -15.22770       3.38260       -0.31886909
 C       -1.28440       -16.59540       3.64930       0.23544800
 O       -2.20540       -16.74100       4.72350       -0.35693058
 C       -2.40370       -18.09200       5.12180       0.09648924
 C       -3.31680       -18.02050       6.35370       0.06751451
 O       -2.55160       -17.69450       7.48840       -0.44039788
 C       -3.09760       -18.82630       3.95340       0.09420142
 O       -3.10180       -20.18160       4.34180       -0.43895642
 C       -2.29310       -18.67110       2.64590       0.09892885
 O       -3.17660       -19.12430       1.64190       -0.44388162
 C       -1.93010       -17.19960       2.38260       0.09047923
 O       -0.97290       -17.24470       1.34870       -0.44355107
 C       -1.73460       -13.70480       6.42940       0.09187170
 O       -2.52080       -14.85880       6.61430       -0.48921104
 C       -2.57640       -12.56170       7.02250       0.09821471
 O       -2.53710       -12.62330       8.43360       -0.44400525
 C       -1.99460       -11.17600       6.68680       0.09562320
 O       -3.03610       -10.22740       6.79290       -0.44022184
 C       -3.26580       -11.19770       -3.28530       -0.04467093
 C       -2.04300       -10.81660       -3.68350       0.01636673
 C       -1.05780       -11.72590       -4.33790       -0.10261540
 C       -1.54730       -9.45320       -3.47770       -0.03601485
 C       -1.59580       -8.86020       -2.27760       -0.03155921
 C       -0.95960       -7.57400       -2.01750       -0.02030170
 C       0.02740       -7.43330       -1.11820       -0.01471850
 C       0.58560       -8.52620       -0.28200       -0.11076705
 C       0.65280       -6.10090       -0.95900       0.35429297
 O       0.45600       -5.11410       -1.61770       -0.40183009
 O       1.56070       -6.15290       0.05690       -0.26672280
 C       2.33030       -5.00750       0.35330       0.23956878
 O       1.40550       -3.97650       0.62800       -0.32032139
 C       2.03780       -2.78000       1.05980       0.10445417
 C       0.92220       -1.73270       1.03760       0.07547880
 O       0.88810       -1.34760       -0.33290       -0.30390700
 C       -0.35830       -0.93880       -0.81260       0.23284761
 O       -0.52250       0.38220       -0.31270       -0.34588008
 C       -1.61370       1.09060       -0.87050       0.09840144
 C       -1.59370       2.43480       -0.12800       0.07283032
 O       -1.95640       2.24030       1.22130       -0.43335199
 C       -1.36410       1.28020       -2.37950       0.09547934
 O       -2.51760       1.93400       -2.86260       -0.44376876
 C       -1.22310       -0.09520       -3.05560       0.10026304
 O       -0.79330       0.19750       -4.37090       -0.44860893
 C       -0.16380       -0.95460       -2.34640       0.09014516
 O       -0.39210       -2.25680       -2.83410       -0.45221259
 C       2.58440       -3.04590       2.47530       0.09523535
 O       3.21810       -1.84750       2.85890       -0.44082235
 C       3.62570       -4.18210       2.40140       0.09138972
 O       3.86980       -4.51870       3.75090       -0.44628945
 C       3.10120       -5.40900       1.63400       0.07852534
 O       4.17870       -6.25110       1.31890       -0.43163778
 H       -6.49670       -14.50700       -5.49580       0.06169634
 H       -5.17680       -15.65440       -5.96470       0.06591001
 H       -5.28940       -14.02060       -6.73630       0.06229320
 H       -3.76710       -14.52690       -2.45230       0.05330493
 H       -1.59350       -12.58630       -1.62660       0.04645820
 H       -4.80930       -13.80920       0.15840       0.05107266
 H       -3.86910       -15.28900       -0.08150       0.04715446
 H       -3.86330       -14.47390       1.49030       0.03990744
 H       -1.59220       -13.67380       1.81550       0.05667011
 H       -1.63990       -10.99790       0.23470       0.04442400
 H       0.12950       -11.82080       2.56820       0.05126646
 H       -1.50330       -8.01630       2.12380       0.06463239
 H       -2.47080       -9.30150       1.38400       0.05670640
 H       -2.73650       -8.85890       3.07330       0.05589109
 H       -2.42240       -10.89940       4.51220       0.03975449
 H       -2.43200       -13.45540       4.35440       0.04950798
 H       0.29600       -13.92950       3.72990       0.07645962
 H       0.02210       -15.07360       5.09290       0.05086694
 H       -0.30260       -17.02990       3.92450       0.02219090
 H       -1.42620       -18.55560       5.38360       0.05730161
 H       -4.14500       -17.30350       6.21960       0.04617239
 H       -3.71980       -19.03020       6.58880       0.07991169
 H       -2.42170       -16.72110       7.54960       0.31017213
 H       -4.14910       -18.48910       3.80870       0.04848939
 H       -3.42660       -20.73700       3.59540       0.31408825
 H       -1.38670       -19.32010       2.63760       0.04899014
 H       -2.76100       -19.01420       0.75700       0.30853172
 H       -2.81160       -16.60760       2.04980       0.05586088
 H       -0.69640       -16.33310       1.10190       0.30818197
 H       -0.79240       -13.85140       7.00420       0.04084891
 H       -2.41850       -15.50270       5.87380       0.33258715
 H       -3.64350       -12.64380       6.70750       0.04748750
 H       -2.71500       -13.54410       8.72960       0.30993015
 H       -1.16030       -10.90030       7.37330       0.07241518
 H       -3.32620       -10.15970       7.73100       0.31719080
 H       -3.98790       -10.48280       -2.88070       0.05283164
 H       -0.98310       -11.50720       -5.41490       0.05066173
 H       -1.33530       -12.78640       -4.25090       0.04363293
 H       -0.05030       -11.61660       -3.91240       0.04253126
 H       -1.07970       -8.98220       -4.34390       0.05079554
 H       -2.08120       -9.32920       -1.41900       0.04602507
 H       -1.32030       -6.72550       -2.61270       0.07161121
 H       0.10570       -9.49700       -0.45830       0.04946791
 H       0.49240       -8.30130       0.79600       0.06962257
 H       1.66540       -8.66180       -0.46300       0.06090703
 H       2.96060       -4.74310       -0.51860       0.02506819
 H       2.84880       -2.48680       0.35250       0.05579360
 H       -0.04380       -2.14440       1.37520       0.05554632
 H       1.19120       -0.83740       1.63160       0.06997863
 H       -1.19290       -1.57440       -0.45570       0.01854792
 H       -2.56100       0.54170       -0.67540       0.04390622
 H       -0.60000       2.91540       -0.17070       0.04286638
 H       -2.37060       3.11960       -0.52130       0.07428655
 H       -1.35120       1.58490       1.63090       0.29673759
 H       -0.47870       1.92140       -2.58640       0.04466448
 H       -2.49290       1.95400       -3.84650       0.31111934
 H       -2.19950       -0.62880       -3.12310       0.04540301
 H       -0.56520       -0.63910       -4.83490       0.30669387
 H       0.87040       -0.64460       -2.62300       0.05229642
 H       0.11240       -2.93220       -2.31730       0.32345535
 H       1.77940       -3.28490       3.20510       0.05028701
 H       3.66620       -1.97550       3.72660       0.31442572
 H       4.58830       -3.81420       1.97650       0.03311169
 H       4.25430       -5.42120       3.81780       0.30926145
 H       2.46440       -6.06180       2.28690       0.09532504
 H       4.78490       -5.84450       0.66590       0.29119274
no frequencies
COC(=O)/C(=C/C=C(\C)/C=C/C=C(\C)/C(=O)O[C@H]1O[C@@H](CO[C@H]2O[C@@H](CO)[C@H](O)[C@@H](O)[C@@H]2O)[C@H](O)[C@@H](O)[C@@H]1O)/C=C(\C)/C=C/C=C(\C)/C(=O)O[C@H]1O[C@@H](CO[C@H]2O[C@@H](CO)[C@H](O)[C@@H](O)[C@@H]2O)[C@H](O)[C@@H](O)[C@@H]1O
