22
f_1123.out 0.274
 C       1.46950       -0.09720       -0.21450       0.03619044
 O       0.14250       -0.32680       0.24640       -0.28700734
 C       -0.33170       0.57770       1.15200       0.35309793
 O       0.32210       1.52230       1.51010       -0.39677068
 C       -1.68230       0.19870       1.57170       -0.03208209
 C       -2.43710       -0.78800       1.00380       -0.01832924
 S       -4.00580       -0.97030       1.77360       -0.02857503
 C       -3.64410       0.30190       2.89170       0.05316056
 C       -2.34330       0.84970       2.65730       -0.02663103
 C       -2.16830       1.86640       3.61490       0.00230131
 C       -3.35960       1.90640       4.40060       0.02217911
 N       -4.25520       0.94290       3.94680       -0.11248927
 C       -3.35310       2.89430       5.43040       -0.05991148
 C       -2.17850       3.58880       5.42610       -0.02827490
 S       -1.06370       3.06010       4.17200       -0.00133041
 H       2.17650       -0.21450       0.61400       0.06083176
 H       1.60680       -0.87830       -0.97040       0.06607063
 H       1.55710       0.90360       -0.65180       0.06361847
 H       -2.15130       -1.41800       0.17510       0.06691429
 H       -5.15300       0.74950       4.32310       0.17522098
 H       -4.17550       3.05290       6.10690       0.03971219
 H       -1.90260       4.38640       6.09310       0.05210380
no frequencies
COC(=O)c1csc2c1c1c([nH]2)ccs1
