31
s_1948.out 0.30428
 C       -0.28630       5.44760       3.34050       -0.13170945
 C       -1.21500       4.43260       2.74910       0.24137491
 O       -1.20180       3.27630       3.08870       -0.36247286
 C       -2.16130       4.91260       1.71000       -0.02973916
 C       -2.85200       6.11490       1.86460       -0.01340536
 C       -3.75980       6.51260       0.89210       -0.04435551
 C       -3.96230       5.68770       -0.23280       0.10114568
 C       -4.91660       6.07960       -1.27490       -0.03115227
 C       -5.22740       5.30220       -2.31650       -0.06688580
 N       -3.29110       4.52370       -0.38650       -0.23201464
 C       -2.41270       4.14430       0.55980       0.10486900
 C       -1.71160       2.86220       0.32610       0.03105310
 C       -2.45520       1.65210       0.59290       -0.00907190
 C       -1.89360       0.42170       0.46410       -0.02800353
 C       -0.53060       0.34470       0.04800       0.07424941
 N       0.31580       -0.66470       -0.15580       -0.11245747
 O       1.50260       -0.13580       -0.54520       -0.02526185
 N       1.45120       1.21710       -0.60400       -0.11663656
 C       0.22130       1.59080       -0.24900       0.07405563
 C       -0.41870       2.85590       -0.10150       -0.03488534
 H       0.62200       4.96320       3.73600       0.07073214
 H       0.02910       6.20570       2.61310       0.05456707
 H       -0.75860       5.96760       4.18620       0.07309716
 H       -2.68610       6.73670       2.74600       0.04234365
 H       -4.31180       7.44280       0.99400       0.04322396
 H       -5.36620       7.06540       -1.14270       0.04258986
 H       -5.92820       5.59100       -3.08610       0.05071345
 H       -4.79460       4.31750       -2.46940       0.06887372
 H       -3.49540       1.76660       0.90870       0.05557322
 H       -2.43390       -0.50200       0.66900       0.06050873
 H       0.14100       3.76270       -0.32700       0.04908103
no frequencies
CC(=O)c1ccc(C=C)nc1c1ccc2nonc2c1
