41
s_11904.out 0.25511
 C       1.27470       -0.09790       -0.82340       -0.03848037
 N       0.08570       -0.12150       0.03400       -0.16941025
 C       -0.01260       0.73250       1.09920       0.08339278
 C       -1.17640       1.04500       1.77660       -0.09647782
 C       -0.91930       1.85670       2.90760       0.01842338
 S       -1.90490       2.58050       4.13340       -0.06807977
 C       -0.49900       3.33410       4.89370       0.01484705
 C       0.65940       3.01950       4.23780       -0.05575127
 C       0.42150       2.18640       3.11210       0.00501977
 S       1.41910       1.47290       1.88590       -0.08523823
 C       -0.65130       4.17910       6.05810       0.01445238
 C       -0.06530       3.81050       7.26460       -0.05075182
 C       -0.18800       4.64510       8.39030       0.14068307
 O       0.47830       4.31630       9.54560       -0.30908594
 C       -0.29270       3.46360       10.38900       0.04136971
 C       -0.88570       5.83330       8.30100       -0.01580628
 C       -1.15200       6.89240       9.27600       0.01501408
 C       -0.75770       7.02990       10.59020       -0.02912256
 C       -1.16590       8.17950       11.28700       -0.02312683
 C       -1.94280       9.15460       10.67440       -0.02907342
 C       -2.34260       9.01850       9.33340       -0.01338020
 C       -1.94230       7.89430       8.64970       -0.02608163
 C       -2.19690       7.49370       7.23330       0.23358198
 O       -2.83510       8.08450       6.40910       -0.34291737
 C       -1.48900       6.18210       7.06280       -0.02712515
 C       -1.38580       5.38380       5.95160       -0.02267268
 H       2.16920       -0.41230       -0.25180       0.06231663
 H       1.14970       -0.82460       -1.64550       0.05050260
 H       1.47030       0.89440       -1.26660       0.04575898
 H       -0.77790       -0.36480       -0.43890       0.16539997
 H       -2.16100       0.71940       1.49190       0.03486355
 H       1.64300       3.36750       4.52260       0.04020287
 H       0.49690       2.88150       7.35090       0.05436309
 H       0.37950       3.29540       11.23910       0.06315091
 H       -1.20960       3.96820       10.71100       0.03792107
 H       -0.52130       2.52070       9.88370       0.03850068
 H       -0.13820       6.27540       11.07100       0.05173338
 H       -0.86060       8.30310       12.32570       0.03868010
 H       -2.24440       10.03880       11.23250       0.03910654
 H       -2.95020       9.78370       8.85070       0.05170204
 H       -1.84780       5.67370       5.00600       0.06159496
no frequencies
CNc1cc2sc(cc2s1)c1cc(OC)c2-c3ccccc3C(=O)c2c1
