39
a_9567.out 0.26375
 F       -9.37780       -5.02150       18.71990       -0.20739458
 C       -10.11430       -4.26610       17.90430       0.48837418
 F       -11.11600       -3.84810       18.67800       -0.20654884
 F       -10.67890       -5.13580       17.06580       -0.20649174
 C       -9.35890       -3.17040       17.20260       -0.01918316
 C       -8.00700       -3.34040       16.93090       -0.02262029
 C       -7.28720       -2.33730       16.25720       -0.01066237
 C       -7.96080       -1.19970       15.88280       -0.01595134
 C       -9.34290       -1.02760       16.15990       0.01672896
 C       -10.05450       -2.01270       16.81290       -0.02281653
 C       -9.76730       0.27970       15.64020       0.01108335
 C       -10.99520       0.90260       15.66810       -0.02156774
 C       -11.10410       2.17910       15.07890       0.02629123
 C       -10.00440       2.78850       14.47630       -0.03339164
 C       -8.75460       2.15000       14.44750       -0.01204743
 C       -8.64820       0.90990       15.03240       -0.02343020
 C       -7.46090       0.01410       15.15400       0.23480916
 O       -6.34740       0.20990       14.75930       -0.33262768
 C       -12.38620       2.87310       15.08770       0.01133119
 C       -12.54090       4.22160       15.35660       -0.03867439
 S       -14.18810       4.72600       15.22230       0.04401612
 C       -14.70780       3.16590       14.81040       0.01252763
 C       -13.62800       2.26820       14.79230       -0.05823237
 C       -14.13140       0.90270       14.44120       0.23759495
 O       -13.51230       -0.11930       14.37400       -0.33868114
 C       -15.59620       1.11190       14.22990       -0.05135679
 C       -15.91020       2.46100       14.46080       0.01123333
 S       -17.56770       2.73580       14.22900       0.04309023
 C       -17.86100       1.07150       13.82720       -0.02996425
 C       -16.70650       0.32270       13.87160       -0.02839132
 H       -7.47960       -4.24970       17.22520       0.06483866
 H       -6.22630       -2.46430       16.03770       0.06979125
 H       -11.12190       -1.89040       17.00550       0.06682828
 H       -11.86810       0.42620       16.11540       0.06298744
 H       -10.11520       3.76650       14.01010       0.04436454
 H       -7.89690       2.62520       13.97150       0.05887945
 H       -11.75480       4.90370       15.62790       0.05636226
 H       -18.84420       0.71460       13.58010       0.05788371
 H       -16.63990       -0.73700       13.66100       0.06101788
no frequencies
FC(F)(F)c1ccc2c(-c3cc(ccc3C2=O)c2csc3-c4c(C(=O)c23)ccs4)c1
