63
m_15650.out 0.27632
 C       1.43670       0.33030       0.03390       0.03179679
 O       0.13690       -0.01190       0.50530       -0.26511255
 C       -0.35010       0.76120       1.51190       0.36114278
 O       0.26570       1.67540       1.99400       -0.38637873
 C       -1.69260       0.30550       1.88150       -0.05330701
 C       -2.32140       -0.80400       1.32240       0.13910514
 O       -1.82890       -1.65200       0.36450       -0.13040490
 N       -2.81010       -2.60290       0.10840       -0.12476153
 C       -3.87440       -2.38210       0.86010       0.07780757
 C       -5.13700       -3.17260       0.81280       -0.01009591
 C       -4.88690       -4.58630       0.26290       -0.06593116
 C       -6.22310       -5.31380       0.02900       0.00537864
 N       -7.16150       -4.58700       -0.85000       -0.18180175
 C       -6.70090       -4.49240       -2.25710       0.01117189
 C       -6.69560       -5.88300       -2.92740       -0.05627255
 C       -6.06170       -5.79240       -4.27240       -0.05338391
 C       -4.70690       -5.67330       -4.47270       0.09535588
 C       -3.69610       -5.62590       -3.37850       -0.10791831
 N       -4.16870       -5.57540       -5.73810       -0.28803449
 C       -4.95340       -5.60850       -6.80690       0.15568938
 C       -4.27180       -5.51940       -8.14540       -0.06608811
 C       -5.23770       -5.18370       -9.28000       -0.05409318
 C       -6.47090       -6.08010       -9.16960       -0.05963588
 C       -7.21670       -5.76690       -7.86940       0.00900448
 N       -6.31790       -5.74990       -6.69920       -0.08485805
 C       -6.95110       -5.83540       -5.40840       0.25867344
 O       -8.15860       -5.93880       -5.41080       -0.44514314
 C       -7.41630       -3.24290       -0.28890       0.00547575
 C       -6.14100       -2.40490       -0.07050       -0.05426092
 C       -3.62990       -1.21170       1.69630       -0.02997319
 C       -4.33940       -0.50510       2.66050       -0.02277635
 C       -3.73920       0.60600       3.24100       -0.05563903
 C       -2.44520       0.98610       2.84470       0.18291827
 F       -1.90800       2.04720       3.41050       -0.17019404
 H       2.16890       0.24960       0.84440       0.06547775
 H       1.61470       -0.42120       -0.74490       0.07477899
 H       1.43130       1.34370       -0.38110       0.06456130
 H       -5.55670       -3.26180       1.84770       0.03926523
 H       -4.25370       -5.16130       0.96190       0.03382301
 H       -4.31160       -4.53580       -0.68370       0.05314528
 H       -6.74300       -5.48140       0.99870       0.03361678
 H       -6.04120       -6.32460       -0.39540       0.03746440
 H       -5.69960       -4.02170       -2.35050       0.01828185
 H       -7.41640       -3.83960       -2.80740       0.03598201
 H       -6.17070       -6.62890       -2.29820       0.03942629
 H       -7.74340       -6.25590       -2.99720       0.06329845
 H       -2.69580       -5.92760       -3.73570       0.06308668
 H       -3.58530       -4.59890       -2.99050       0.05901021
 H       -3.96200       -6.27870       -2.53620       0.04962578
 H       -3.44820       -4.77060       -8.09020       0.06823305
 H       -3.75670       -6.48800       -8.34190       0.06486990
 H       -5.53170       -4.11620       -9.23670       0.04055224
 H       -4.74030       -5.31680       -10.25900       0.03925771
 H       -7.14770       -5.92950       -10.03220       0.04385315
 H       -6.17640       -7.14750       -9.20220       0.04379295
 H       -7.72910       -4.77750       -7.93100       0.05549046
 H       -8.02100       -6.52350       -7.68650       0.07369282
 H       -7.95510       -3.38090       0.67440       0.03543039
 H       -8.11840       -2.70260       -0.96010       0.03718004
 H       -6.39830       -1.43640       0.39200       0.02788418
 H       -5.67730       -2.16280       -1.04660       0.03633244
 H       -5.34300       -0.81750       2.95290       0.06036999
 H       -4.26690       1.18360       4.00040       0.07476134
no frequencies
COC(=O)c1c2onc(C3CCN(CCc4c(C)nc5CCCCn5c4=O)CC3)c2ccc1F
