27
a_10567.out 0.23931
 C       0.02620       1.11870       -0.71390       -0.10003788
 C       -1.16660       0.45270       -0.17030       0.02355224
 S       -1.10250       -1.16920       0.49170       -0.04545429
 C       -2.79120       -1.17650       0.88780       -0.05626024
 C       -3.35680       0.00850       0.51400       0.13589223
 O       -4.65940       0.25600       0.74840       -0.38691328
 C       -2.43870       0.95480       -0.08590       -0.04475982
 C       -2.86530       2.26430       -0.51910       0.01684363
 C       -2.42550       3.45380       0.03230       -0.04068647
 S       -3.17200       4.82620       -0.70870       0.03166216
 C       -4.07290       3.85750       -1.76840       0.00946781
 C       -3.80330       2.49600       -1.55100       -0.06661344
 C       -4.56840       1.67750       -2.54170       0.23334038
 O       -4.57010       0.48980       -2.68170       -0.33381457
 C       -5.32900       2.70020       -3.32620       -0.05305949
 C       -5.01560       3.98110       -2.84600       0.01041584
 S       -5.86630       5.16720       -3.71280       0.03505983
 C       -6.64510       3.97880       -4.71420       -0.02975490
 C       -6.25460       2.69970       -4.38830       -0.02915312
 H       0.73290       0.42710       -1.19950       0.05720878
 H       -0.23870       1.87410       -1.47480       0.04682753
 H       0.58650       1.65040       0.07420       0.05285534
 H       -3.28670       -2.01030       1.34620       0.06127314
 H       -4.97320       1.05310       0.24560       0.30159061
 H       -1.71460       3.54650       0.83410       0.05494808
 H       -7.34250       4.25780       -5.48240       0.05586484
 H       -6.60080       1.79580       -4.87220       0.05970506
no frequencies
Cc1scc(O)c1c1csc2-c3c(C(=O)c12)ccs3
