47
s_15811.out 0.25938
 C       -10.03630       -0.25290       -5.11650       -0.03450388
 N       -10.97480       -0.35520       -3.98170       -0.19191485
 C       -10.39160       -0.51380       -2.73060       0.05342834
 S       -9.18710       0.60000       -2.08640       -0.07404579
 C       -9.18190       -0.21330       -0.53620       -0.00778114
 C       -10.08360       -1.24310       -0.50150       0.00356252
 S       -10.38220       -2.29000       0.86350       -0.23698309
 C       -10.75980       -1.41730       -1.75270       0.08945410
 O       -11.63990       -2.39900       -2.07600       -0.40373083
 C       -8.32590       0.28300       0.52210       0.00537538
 C       -8.94760       1.05400       1.50640       -0.03531413
 C       -8.19360       1.63760       2.52010       -0.03218737
 C       -6.81280       1.50710       2.50790       -0.03533527
 C       -6.16160       0.76040       1.51530       0.00789855
 C       -4.69990       0.75020       1.45260       0.01340554
 C       -3.92500       1.51870       2.33890       -0.03351933
 C       -2.54410       1.56040       2.23400       -0.02386667
 C       -1.90180       0.83480       1.22310       -0.01943007
 C       -2.64360       0.05970       0.34260       -0.02955131
 C       -4.03960       -0.00070       0.46100       0.01210453
 C       -4.81140       -0.85480       -0.40940       -0.00850288
 C       -4.31450       -1.77130       -1.30440       -0.03056747
 S       -5.59200       -2.65230       -2.03750       0.00576817
 C       -6.80540       -1.81070       -1.16090       -0.02820741
 C       -6.25880       -0.85010       -0.34290       -0.00587792
 C       -6.93350       0.06480       0.55550       0.00789963
 C       -0.43420       0.92240       1.13560       0.34875406
 O       0.30190       1.53590       1.86770       -0.40836779
 O       0.03710       0.19980       0.08300       -0.27925750
 C       1.44950       0.21890       -0.09670       0.03585220
 H       -9.32750       -1.09430       -5.18020       0.03555156
 H       -9.45990       0.68640       -5.04850       0.05633973
 H       -10.61680       -0.20920       -6.05330       0.04804424
 H       -11.72190       -1.03410       -4.15400       0.17084891
 H       -9.62360       -1.68490       1.79260       0.15977611
 H       -12.16580       -2.68730       -1.28810       0.30630336
 H       -10.02710       1.20940       1.47190       0.03521790
 H       -8.68420       2.21200       3.30380       0.03554033
 H       -6.23190       2.00330       3.28740       0.04002580
 H       -4.40740       2.10200       3.12370       0.04382338
 H       -1.94840       2.15790       2.92970       0.05889045
 H       -2.14100       -0.50590       -0.44550       0.05365765
 H       -3.28020       -1.95740       -1.53120       0.04985919
 H       -7.84270       -2.07710       -1.26930       0.05147696
 H       1.94990       -0.18290       0.79080       0.06245487
 H       1.59510       -0.42990       -0.96770       0.06566623
 H       1.79070       1.24020       -0.29660       0.06196501
no frequencies
CNc1sc(c(S)c1O)c1cccc2c3ccc(cc3c3cscc3c12)C(=O)OC
