55
m_5974.out 0.31277
 C       0.15760       -4.70610       -2.37980       -0.09093704
 C       -0.01690       -4.73490       -0.86450       -0.07444956
 C       -1.45180       -5.08640       -0.52960       0.26850920
 O       -1.80560       -6.23900       -0.38960       -0.43563668
 N       -2.38210       -4.06660       -0.37050       -0.12911282
 C       -2.09380       -2.63830       -0.59670       0.04256078
 C       -1.71120       -1.95910       0.73720       -0.06419735
 C       -1.55310       -0.44220       0.53720       0.00644759
 N       -2.73880       0.21460       -0.05080       -0.18645267
 C       -3.92460       0.18800       0.83980       0.01417637
 C       -3.69550       1.06210       2.09030       -0.06337737
 C       -4.85620       0.88490       3.01880       0.01420750
 C       -5.83090       1.87670       3.13490       -0.03825275
 C       -6.91770       1.68930       3.98700       -0.03011043
 C       -7.03620       0.51180       4.72240       -0.03371382
 C       -6.06440       -0.48120       4.60570       -0.03048924
 C       -4.97520       -0.29510       3.75920       -0.03675846
 C       -3.05110       -0.42170       -1.35080       0.00536884
 C       -3.30220       -1.93700       -1.25180       -0.06244867
 C       -3.72150       -4.42580       -0.01010       0.06356277
 C       -4.52760       -5.09300       -0.94340       -0.03036931
 C       -5.84060       -5.40500       -0.62690       -0.05699480
 C       -6.35750       -5.05180       0.63450       0.07844535
 N       -7.70460       -5.28060       0.92120       -0.27898546
 C       -5.53740       -4.41110       1.58100       -0.06002646
 C       -4.22040       -4.11390       1.25940       -0.03916880
 H       -0.06540       -5.68940       -2.81980       0.04631543
 H       1.18710       -4.45110       -2.65620       0.03778261
 H       -0.50700       -3.97860       -2.86000       0.03138656
 H       0.63790       -5.51950       -0.42190       0.05520703
 H       0.30630       -3.78690       -0.40070       0.03379361
 H       -1.22510       -2.55930       -1.30470       0.03896611
 H       -0.77820       -2.39410       1.13440       0.02631520
 H       -2.48180       -2.15930       1.50450       0.04059088
 H       -0.69090       -0.22800       -0.13300       0.03175168
 H       -1.31200       0.04740       1.50490       0.03660323
 H       -4.78830       0.59970       0.26990       0.03155808
 H       -4.20990       -0.84220       1.14770       0.01820900
 H       -2.74880       0.78840       2.59720       0.03963598
 H       -3.55830       2.11810       1.78390       0.04130569
 H       -5.74580       2.79540       2.55860       0.03082527
 H       -7.67730       2.46330       4.07570       0.02893362
 H       -7.88530       0.36760       5.38530       0.02829328
 H       -6.15850       -1.40280       5.17640       0.02741216
 H       -4.21690       -1.06980       3.67140       0.02724012
 H       -2.20340       -0.21130       -2.03900       0.03388370
 H       -3.93620       0.08480       -1.79230       0.03458099
 H       -3.49250       -2.36440       -2.25220       0.03138266
 H       -4.22700       -2.12530       -0.67110       0.03836524
 H       -4.10980       -5.37570       -1.90980       0.04232072
 H       -6.46720       -5.91880       -1.34930       0.03263663
 H       -8.20210       -5.93700       0.35730       0.16027108
 H       -7.99770       -5.24490       1.87490       0.15955715
 H       -5.93070       -4.15110       2.55900       0.02977537
 H       -3.57340       -3.64650       2.00050       0.03330417
no frequencies
CCC(=O)N(C1CCN(CCc2ccccc2)CC1)c1ccc(N)cc1
