46
m_4721.out 0.31711
 C       -2.45160       8.00930       1.08830       -0.11010262
 C       -2.28170       6.57490       1.45290       0.02549790
 C       -3.19870       5.62870       0.99840       -0.03517066
 C       -3.04520       4.28070       1.33410       -0.03808259
 C       -1.97690       3.87120       2.13100       0.02613889
 C       -1.06750       4.83000       2.59860       -0.02601822
 C       -1.21560       6.16820       2.26170       -0.03219899
 C       -1.73970       2.47590       2.52910       -0.00559584
 C       -1.01540       1.61960       1.79540       -0.03838020
 C       -0.41250       2.00540       0.47840       0.01494071
 N       0.57860       0.97860       0.07200       -0.18835462
 C       1.49440       1.48410       -0.98360       0.00455791
 C       0.91070       1.08620       -2.36080       -0.05678114
 C       -0.12120       -0.01610       -2.06090       -0.05653540
 C       -0.07110       -0.21650       -0.52710       0.00529911
 C       -2.27990       2.10300       3.84990       0.09738029
 C       -3.12170       0.99090       4.00880       -0.04184267
 C       -3.61500       0.70620       5.27970       -0.00981268
 C       -3.25320       1.51700       6.35310       -0.03997491
 C       -2.39570       2.59870       6.11200       0.05730575
 N       -1.91980       2.88910       4.88970       -0.23607847
 C       -4.08920       3.33490       0.81920       0.49020999
 F       -3.87230       2.03630       1.01630       -0.21115019
 F       -5.29900       3.54430       1.34190       -0.21331179
 F       -4.28030       3.42080       -0.50070       -0.21498063
 H       -2.67680       8.13660       0.01950       0.05074803
 H       -3.28150       8.46440       1.65140       0.05495478
 H       -1.55710       8.61080       1.29780       0.04689303
 H       -4.03850       5.95310       0.38240       0.05179706
 H       -0.25380       4.50950       3.25450       0.06247249
 H       -0.50320       6.90230       2.63440       0.04845154
 H       -0.80190       0.60400       2.13570       0.05548294
 H       0.11270       2.98610       0.58580       0.03675083
 H       -1.21000       2.16620       -0.28370       0.02690782
 H       1.66710       2.57010       -0.89880       0.02624537
 H       2.47520       0.98890       -0.81570       0.03505989
 H       0.43850       1.94810       -2.85680       0.02629148
 H       1.70120       0.73060       -3.03790       0.02884458
 H       0.11180       -0.94880       -2.59390       0.02914289
 H       -1.12970       0.28290       -2.38730       0.02791683
 H       0.56390       -1.08970       -0.26480       0.03402079
 H       -1.07090       -0.39970       -0.09640       0.03431989
 H       -3.38730       0.37350       3.15520       0.04547100
 H       -4.28080       -0.14280       5.43170       0.03723396
 H       -3.62520       1.32210       7.35330       0.03558933
 H       -2.07000       3.26740       6.91700       0.03844655
no frequencies
Cc1cc(c(cc1)/C(=C\CN1CCCC1)/c1ccccn1)C(F)(F)F
