37
s_14241.out 0.25114
 C       1.59690       0.20490       -0.12550       -0.03908773
 N       0.17570       -0.00540       0.17240       -0.17975202
 C       -0.36120       0.57110       1.31640       0.05500313
 C       0.29350       1.58390       2.02600       0.01589979
 N       -0.25680       2.22970       3.08720       -0.21828037
 C       -1.46460       1.90100       3.50260       0.03934480
 C       -2.23050       0.87170       2.86260       0.07445847
 N       -3.47710       0.57940       3.35830       -0.22543753
 C       -4.18440       -0.37150       2.78180       0.06023130
 C       -3.71300       -1.10730       1.64710       -0.00113364
 C       -2.47310       -0.81050       1.13410       -0.02403011
 C       -1.67870       0.19260       1.74690       -0.00825858
 C       -4.55120       -2.15270       1.06070       0.01020829
 C       -4.90040       -3.27520       1.88050       -0.02675795
 C       -5.65460       -4.29590       1.37890       -0.03514868
 C       -6.11350       -4.26090       0.02710       -0.00077755
 C       -6.87340       -5.18320       -0.67780       -0.03886783
 S       -7.14730       -4.64200       -2.26190       0.07465898
 C       -6.28330       -3.20000       -2.07270       -0.04176169
 C       -5.76760       -3.11420       -0.78610       -0.00068867
 C       -4.97540       -2.06880       -0.23670       -0.03471304
 C       -6.02270       -5.48250       2.21970       0.48808168
 F       -5.59500       -5.45070       3.48170       -0.20840650
 F       -7.33810       -5.67410       2.33430       -0.21135656
 F       -5.55310       -6.63990       1.75080       -0.21219742
 H       1.86240       -0.34220       -1.04650       0.04872950
 H       1.78730       1.27790       -0.31790       0.05665146
 H       2.26460       -0.12920       0.68730       0.04148561
 H       -0.16980       -0.92060       -0.08670       0.15752778
 H       1.29820       1.92370       1.76410       0.04160047
 H       -1.88130       2.43670       4.36370       0.05513694
 H       -5.17730       -0.58050       3.20490       0.04246832
 H       -2.10400       -1.34150       0.25690       0.02659977
 H       -4.52710       -3.27400       2.90900       0.05679947
 H       -7.25410       -6.12140       -0.31070       0.06321086
 H       -6.16160       -2.46230       -2.84570       0.05675272
 H       -4.72330       -1.21490       -0.86610       0.04180655
no frequencies
CNc1cncc2ncc(cc12)c1cc(c2cscc2c1)C(F)(F)F
