29
a_7076.out 0.24714
 C       -4.70750       -4.28730       8.77540       -0.14024132
 C       -5.17070       -5.12860       7.63050       0.25085027
 O       -6.17760       -5.78900       7.67050       -0.34058630
 C       -4.30960       -5.13240       6.43010       -0.01849887
 C       -3.54460       -6.20860       6.00630       0.01929967
 C       -2.84050       -5.89580       4.82400       -0.05608843
 C       -3.06040       -4.58430       4.37050       0.01248254
 S       -4.15020       -3.77040       5.38150       0.06473270
 C       -2.24870       -4.35150       3.20710       0.01155581
 C       -1.51770       -5.51540       2.92000       -0.04923766
 C       -0.65920       -5.39040       1.81030       -0.02762521
 C       -0.73510       -4.13280       1.25510       -0.02957278
 S       -1.86550       -3.12140       2.10230       0.05035780
 C       -1.86170       -6.57550       3.91730       0.23893039
 O       -1.46060       -7.70080       3.97100       -0.32938198
 C       -3.42690       -7.45330       6.71370       0.01506951
 S       -3.85480       -8.99420       6.05160       0.08217674
 C       -3.42700       -9.87690       7.47760       -0.04327481
 C       -2.96500       -9.02140       8.43030       0.01572801
 S       -2.34940       -9.06920       10.06080       0.00460120
 N       -2.15090       -7.26850       10.04750       -0.09088703
 N       -2.49030       -6.73820       8.98600       -0.10422613
 C       -2.96820       -7.63310       7.99610       0.03997707
 H       -5.22280       -4.56450       9.70860       0.07602882
 H       -3.62520       -4.41300       8.96190       0.07960817
 H       -4.89420       -3.22020       8.60360       0.07986293
 H       -0.02420       -6.19260       1.45730       0.06311837
 H       -0.18110       -3.77480       0.40630       0.06038931
 H       -3.53010       -10.94730       7.54320       0.06485120
no frequencies
CC(=O)c1c(c2c(-c3c(ccs3)C2=O)s1)c1scc2snnc12
