38
m_15866.out 0.2829
 C       1.15490       -0.69030       0.15120       0.03120705
 O       -0.21140       -0.29020       0.21040       -0.26803616
 C       -0.66930       0.07630       1.43390       0.35087746
 O       0.03000       0.08200       2.41520       -0.39611880
 C       -2.09460       0.46120       1.35950       -0.00590520
 C       -2.89730       0.05100       0.29540       -0.01741666
 C       -4.24120       0.43050       0.26080       0.01318407
 C       -4.76250       1.22840       1.28680       -0.00660980
 C       -3.95430       1.62790       2.34990       -0.01435863
 C       -2.61610       1.24250       2.39130       -0.01569504
 C       -6.18050       1.67560       1.27000       0.23520982
 O       -6.64970       2.30510       2.18590       -0.35349996
 C       -7.00340       1.33700       0.05440       -0.07789152
 C       -6.59310       -0.00180       -0.54980       -0.06620557
 C       -5.11480       -0.01390       -0.84740       0.10935195
 N       -4.55410       -0.36580       -1.94900       -0.20685138
 C       -5.22570       -0.84270       -3.08480       0.07336217
 C       -4.99470       -0.17310       -4.30180       -0.06195167
 C       -5.54890       -0.67570       -5.46400       0.07924454
 Cl       -5.28460       0.13570       -6.92960       -0.12475538
 C       -6.32280       -1.84740       -5.45580       0.12606761
 O       -6.80660       -2.24820       -6.65100       -0.35624594
 C       -6.52850       -2.49960       -4.24040       0.05827374
 Cl       -7.45410       -3.92760       -4.19240       -0.16426293
 C       -5.99450       -2.01350       -3.05510       -0.06686799
 H       1.30070       -1.60850       0.72980       0.06492851
 H       1.31000       -0.86110       -0.92100       0.07248230
 H       1.80570       0.10690       0.52710       0.06733407
 H       -2.48120       -0.56060       -0.51660       0.08248135
 H       -4.37920       2.24290       3.15010       0.07657721
 H       -1.97540       1.54550       3.22510       0.07231273
 H       -6.89590       2.15670       -0.69090       0.06715502
 H       -8.08370       1.33270       0.31780       0.06776883
 H       -6.83630       -0.83460       0.14700       0.05524666
 H       -7.19420       -0.20400       -1.46260       0.04799148
 H       -4.37230       0.72730       -4.30850       0.07720062
 H       -7.33740       -3.08740       -6.58950       0.31605698
 H       -6.15060       -2.54260       -2.11350       0.05835844
no frequencies
COC(=O)c1cc2c(cc1)C(=O)CC/C/2=N\c1cc(Cl)c(O)c(Cl)c1
