57
m_30696.out 0.31064
 C       3.43940       1.18160       -3.86940       -0.10797668
 C       3.82840       0.72400       -2.50850       0.02955142
 C       4.83990       -0.22810       -2.34310       -0.03678562
 C       5.20930       -0.64860       -1.06920       -0.02799358
 C       4.57590       -0.12460       0.05870       -0.03285516
 C       3.56560       0.81950       -0.09410       -0.03191368
 C       3.19070       1.23300       -1.37240       -0.02889121
 C       2.12250       2.25690       -1.52940       0.28013560
 O       2.29660       3.34570       -2.02040       -0.40114155
 N       0.87410       1.83270       -1.05700       -0.17096533
 C       -0.31290       2.59150       -1.08270       0.07716488
 C       -1.41280       2.07120       -0.37460       -0.06501892
 C       -2.61840       2.76670       -0.34720       0.02604167
 C       -3.78200       2.21760       0.40240       -0.10400692
 C       -2.71990       3.99170       -1.01920       -0.03278157
 C       -1.63690       4.48890       -1.74450       -0.03632034
 C       -0.43220       3.80050       -1.78220       -0.04943523
 C       -3.99220       4.74830       -0.96720       0.26841073
 O       -5.04220       4.36450       -1.44010       -0.43226402
 N       -3.96260       5.98060       -0.31600       -0.11564377
 C       -5.17140       6.80950       -0.21910       0.00662886
 C       -5.24910       7.87020       -1.32980       -0.05871124
 C       -4.15850       8.93680       -1.21920       -0.06790020
 C       -2.74290       8.39300       -1.49030       0.11637923
 O       -2.71730       7.55610       -2.62020       -0.44511443
 C       -2.17770       7.67370       -0.28780       -0.00755580
 C       -2.76920       6.51780       0.24520       0.05853671
 C       -2.20020       5.86030       1.34700       -0.04150759
 C       -1.03270       6.34820       1.92180       -0.04055522
 C       -0.46300       7.49350       1.38020       0.09952165
 Cl       0.97460       8.10330       2.07830       -0.16310850
 C       -1.00700       8.16240       0.29330       -0.04643038
 H       3.45760       2.28580       -3.94000       0.06664813
 H       4.10290       0.80330       -4.65760       0.04230929
 H       2.41620       0.86780       -4.12700       0.04399916
 H       5.34250       -0.63900       -3.21670       0.03884761
 H       5.99900       -1.38990       -0.95080       0.03560965
 H       4.87340       -0.45030       1.05290       0.03523757
 H       3.07710       1.24260       0.78420       0.03077417
 H       0.81040       0.90500       -0.64500       0.17091278
 H       -1.32570       1.12760       0.15510       0.03232297
 H       -4.02100       2.82990       1.28430       0.03896619
 H       -3.62430       1.18920       0.74970       0.03899882
 H       -4.69040       2.20700       -0.22960       0.06483922
 H       -1.72240       5.43670       -2.28610       0.05270459
 H       0.40520       4.21360       -2.34900       0.08323897
 H       -5.19520       7.29470       0.78260       0.03887954
 H       -6.06480       6.13840       -0.27880       0.06930688
 H       -5.21600       7.38060       -2.32530       0.05310731
 H       -6.24490       8.35600       -1.28690       0.04211077
 H       -4.18580       9.41540       -0.22220       0.03426800
 H       -4.37030       9.74380       -1.95000       0.04556705
 H       -2.06550       9.22180       -1.81890       0.04990385
 H       -3.32470       6.79220       -2.49760       0.29682714
 H       -2.67310       4.96060       1.74160       0.05074797
 H       -0.58180       5.83650       2.77190       0.06175738
 H       -0.52040       9.05070       -0.11390       0.06462121
no frequencies
Cc1ccccc1C(=O)Nc1cc(C)c(cc1)C(=O)N1CCC[C@H](O)c2c1ccc(Cl)c2
