33
m_13594.out 0.27944
 C       1.32730       5.37430       5.80540       -0.03319621
 N       2.34680       4.42820       6.28090       -0.20016991
 C       2.48380       3.20950       5.58660       0.05876039
 C       3.67660       2.46530       5.79630       -0.05113437
 C       3.81670       1.20930       5.25620       -0.05230372
 C       2.76870       0.66830       4.47820       0.15352053
 O       2.99210       -0.57270       4.01530       -0.39318976
 C       1.60420       1.39960       4.22220       -0.06608705
 C       1.46330       2.66820       4.80920       -0.06447998
 C       0.56270       0.80310       3.35900       0.27091746
 O       0.53470       -0.39770       3.11500       -0.45328513
 N       -0.37110       1.65740       2.79720       -0.16749878
 C       -1.46840       1.23880       1.99990       0.06567274
 C       -1.47340       0.03050       1.29280       -0.04128345
 C       -2.58030       -0.31550       0.52280       -0.06904416
 C       -3.66370       0.56020       0.46630       0.14192113
 O       -4.78410       0.30140       -0.26010       -0.39046510
 C       -3.67300       1.77830       1.15540       -0.05186048
 C       -2.57010       2.11310       1.92500       -0.05309214
 H       0.31950       4.95390       5.98130       0.04746948
 H       1.42620       5.63150       4.73820       0.02895652
 H       1.39070       6.30490       6.39540       0.04374135
 H       3.22500       4.88070       6.51490       0.15041362
 H       4.47270       2.89110       6.40590       0.03513451
 H       4.71310       0.61060       5.41740       0.05655115
 H       2.16350       -0.93770       3.55380       0.33723762
 H       0.53810       3.22300       4.68000       0.02941292
 H       -0.32790       2.64730       3.01200       0.17254353
 H       -0.61730       -0.64920       1.34060       0.07700187
 H       -2.59280       -1.25530       -0.02100       0.03601624
 H       -4.73970       -0.57450       -0.71300       0.29586335
 H       -4.53770       2.43390       1.08210       0.05407278
 H       -2.56660       3.05210       2.47490       0.03188305
no frequencies
CNc1ccc(O)c(c1)C(=O)Nc1ccc(O)cc1
