48
m_30377.out 0.30601
 C       -2.26590       0.01020       -0.71050       -0.10295994
 C       -1.30760       0.69410       0.26630       -0.01845768
 C       -1.83760       2.10690       0.60910       0.00487291
 N       -0.92370       2.76830       1.57510       -0.18159607
 C       -1.11430       4.23500       1.54700       -0.03084295
 C       -1.12230       2.25580       2.94740       -0.03074047
 C       0.10850       0.81220       -0.34770       -0.00247682
 N       0.77100       -0.51150       -0.35650       -0.12286435
 C       0.89790       -1.13840       0.91970       0.06019719
 C       0.68850       -2.52860       0.97410       0.00102916
 C       0.48130       -3.26330       -0.30780       -0.05340023
 C       1.80840       -3.29740       -1.07660       -0.04886491
 C       2.27830       -1.98890       -1.64450       -0.00556633
 C       1.84640       -0.69960       -1.26350       0.06011861
 C       2.45110       0.42530       -1.85860       -0.05732415
 C       3.42880       0.28400       -2.83420       -0.03596523
 C       3.83730       -0.98550       -3.23060       -0.04310065
 C       3.26520       -2.10110       -2.63020       -0.04296029
 C       0.70580       -3.17740       2.20460       -0.04122986
 C       0.93340       -2.45650       3.37620       -0.03983413
 C       1.16010       -1.08360       3.31840       -0.03672693
 C       1.14440       -0.41960       2.09500       -0.05051892
 H       -3.25200       -0.15070       -0.26450       0.03316294
 H       -1.86920       -0.97320       -1.00260       0.04154771
 H       -2.39910       0.58870       -1.63010       0.03391577
 H       -1.25780       0.08800       1.20260       0.03881313
 H       -2.87860       2.03100       0.98570       0.01362592
 H       -1.88150       2.71470       -0.32010       0.03139643
 H       -0.39160       4.70360       2.23540       0.03752166
 H       -0.88660       4.60870       0.53530       0.03512571
 H       -2.12420       4.56900       1.82450       0.01629093
 H       -0.93240       1.16810       2.96080       0.04160236
 H       -0.37870       2.72270       3.61440       0.03589908
 H       -2.12380       2.43670       3.36260       0.01472379
 H       0.70040       1.57300       0.21410       0.04116292
 H       0.01810       1.16670       -1.39880       0.04267733
 H       -0.29990       -2.76040       -0.92090       0.04082428
 H       0.11440       -4.29310       -0.13840       0.02895801
 H       1.71600       -4.04270       -1.89690       0.03534006
 H       2.60410       -3.69160       -0.40310       0.03561839
 H       2.17080       1.42860       -1.54550       0.02952065
 H       3.88140       1.16660       -3.28180       0.02399208
 H       4.59880       -1.10490       -3.99550       0.02375966
 H       3.59790       -3.09270       -2.93850       0.02366572
 H       0.53950       -4.25110       2.25310       0.02792223
 H       0.93740       -2.96950       4.33430       0.02598598
 H       1.35440       -0.52530       4.23220       0.02595173
 H       1.31790       0.65580       2.05420       0.04020758
no frequencies
C[C@H](CN(C)C)CN1c2c(CCc3c1cccc3)cccc2
