29
a_3927.out 0.23395
 C       3.09480       -6.80060       2.73800       -0.09853607
 C       3.18230       -5.70520       1.76390       0.01581195
 S       4.66450       -5.30700       0.90330       -0.03044703
 C       3.94460       -3.99340       0.02380       -0.03180045
 C       2.63330       -3.87000       0.37340       -0.00767074
 C       1.56820       -2.97470       -0.01670       -0.04356540
 C       0.39490       -3.23110       0.60760       0.03754578
 S       0.51870       -4.60840       1.75190       -0.11082719
 C       2.20690       -4.84810       1.36210       0.01497222
 C       -0.85570       -2.53890       0.46290       0.01433112
 C       -2.10930       -3.12200       0.55050       -0.03456606
 S       -3.38140       -1.96970       0.34590       0.03716078
 C       -2.28760       -0.69170       0.13380       0.01287728
 C       -0.96290       -1.14870       0.21230       -0.05901618
 C       -0.03360       0.00750       0.00590       0.23666980
 O       1.16250       0.00670       -0.03010       -0.33983708
 C       -0.95520       1.17180       -0.17610       -0.05194638
 C       -2.28340       0.72650       -0.09850       0.01233123
 S       -3.36030       2.02250       -0.30300       0.03409660
 C       -2.06230       3.16360       -0.49660       -0.03029195
 C       -0.83050       2.55690       -0.40420       -0.02891513
 H       4.06270       -7.26010       2.98870       0.05289076
 H       2.65780       -6.45770       3.69360       0.05450737
 H       2.44470       -7.61440       2.36940       0.05415379
 H       4.49670       -3.39220       -0.67640       0.05288328
 H       1.73830       -2.17890       -0.73490       0.06315698
 H       -2.31670       -4.16540       0.71720       0.05995662
 H       -2.25280       4.20710       -0.66630       0.05553391
 H       0.12410       3.05910       -0.49290       0.05854020
no frequencies
Cc1scc2cc(sc12)c1csc2-c3c(C(=O)c12)ccs3
