36
s_15752.out 0.25291
 C       -0.37840       0.58010       -1.42310       -0.03048054
 N       -0.17760       0.00630       -0.07390       -0.23103465
 C       -0.54770       -1.34550       0.01610       0.03200351
 S       -2.05270       -1.69910       0.81910       0.00846568
 C       -1.86880       -3.39720       0.62070       0.02864693
 C       -0.67480       -3.69420       -0.02090       -0.04781016
 C       0.09110       -2.51380       -0.37900       0.05166068
 N       1.34490       -2.57010       -0.94290       -0.27325266
 N       -0.22960       -5.01340       -0.33360       0.52716933
 O       -0.66330       -5.94970       0.31860       -0.41062448
 O       0.59250       -5.16190       -1.23190       -0.42057260
 C       -2.91970       -4.26680       1.10520       -0.00529173
 C       -4.20870       -4.16580       0.57960       -0.07384891
 C       -5.25560       -4.92370       1.12560       0.13554731
 O       -6.55040       -4.88230       0.69450       -0.27655940
 C       -6.83170       -4.07760       -0.44000       0.03276129
 C       -5.08270       -5.79670       2.20230       -0.05683228
 C       -3.80090       -5.93130       2.71760       -0.00117685
 C       -3.23800       -6.72740       3.77450       -0.06783960
 C       -1.88220       -6.46740       3.81080       0.00896975
 N       -1.55450       -5.48270       2.87010       -0.10750809
 C       -2.71670       -5.17410       2.15090       0.04337843
 H       -0.19660       1.66700       -1.36660       0.04684207
 H       0.26920       0.15060       -2.20060       0.01931924
 H       -1.42820       0.43990       -1.73410       0.04918011
 H       0.76900       0.17600       0.27020       0.14584453
 H       1.62880       -3.44300       -1.36200       0.20597855
 H       1.72680       -1.74350       -1.35040       0.16320548
 H       -4.39690       -3.50320       -0.26100       0.03951277
 H       -7.90980       -4.23840       -0.57550       0.06339909
 H       -6.62870       -3.02270       -0.23330       0.04314041
 H       -6.28160       -4.43050       -1.31800       0.04325778
 H       -5.92250       -6.35220       2.60970       0.05616799
 H       -3.79140       -7.39240       4.40030       0.04068668
 H       -1.12360       -6.88290       4.44990       0.04191909
 H       -0.64380       -5.33830       2.48490       0.17577523
no frequencies
CNc1sc(c(c1N)N(=O)=O)c1cc(OC)cc2cc[nH]c12
