33
a_8747.out 0.24383
 C       2.59960       3.35000       2.44100       -0.13148056
 C       2.10860       4.53970       1.66890       0.23555590
 O       2.67840       5.60490       1.75520       -0.38204189
 C       0.92940       4.38420       0.79370       -0.02646863
 C       0.58020       5.45790       -0.03890       -0.01705156
 C       -0.48820       5.35690       -0.90990       -0.05935257
 C       -1.24660       4.16490       -0.95910       0.08258775
 N       -2.31060       4.08850       -1.83970       -0.26559741
 C       -0.92610       3.09100       -0.09230       -0.01448791
 C       0.17200       3.21670       0.76040       -0.02424294
 C       -1.69340       1.85850       -0.06410       0.01402859
 C       -3.07400       1.77480       -0.00580       -0.04532661
 S       -3.63210       0.13870       0.00730       0.02255318
 C       -2.05420       -0.47480       -0.06140       0.01171654
 C       -1.11300       0.56720       -0.07780       -0.06065428
 C       0.26320       -0.01610       -0.10610       0.23635785
 O       1.31560       0.55270       -0.06070       -0.34144183
 C       0.01930       -1.49180       -0.15330       -0.05275484
 C       -1.36300       -1.73350       -0.11590       0.01134634
 S       -1.67910       -3.39970       -0.16320       0.03241036
 C       0.01230       -3.79130       -0.23480       -0.03026404
 C       0.80010       -2.66230       -0.21960       -0.02939935
 H       3.50570       3.59920       3.01230       0.05901701
 H       1.84950       2.99200       3.15650       0.05436059
 H       2.85390       2.51520       1.76980       0.06798615
 H       1.17470       6.37780       0.00490       0.06138971
 H       -0.74880       6.18830       -1.55690       0.03510585
 H       -2.41460       4.78710       -2.54520       0.16866115
 H       -2.73080       3.20380       -2.03690       0.16574290
 H       0.43250       2.37200       1.40620       0.05371307
 H       -3.75150       2.60840       0.06110       0.05501920
 H       0.35360       -4.80910       -0.28510       0.05487679
 H       1.88160       -2.65250       -0.25480       0.05813548
no frequencies
CC(=O)c1ccc(N)c(c1)c1csc2-c3c(C(=O)c12)ccs3
