30
s_26186.out 0.25802
 C       1.87850       -0.40920       0.51070       0.02416118
 O       0.86270       0.55490       0.24370       -0.24367657
 C       0.01490       0.83140       1.24630       0.15379393
 C       -1.02700       1.69950       1.04240       -0.08641027
 C       -1.81800       1.88710       2.22030       -0.02806066
 C       -2.97260       2.79930       2.22990       0.20925432
 O       -3.77320       2.81490       3.13580       -0.36241963
 C       -1.38020       1.16510       3.29970       0.03478991
 S       0.04390       0.23810       2.90810       0.01405517
 C       -1.93000       1.14070       4.64490       0.10403971
 N       -1.12260       1.80150       5.57910       -0.21132900
 C       -1.49850       1.91660       6.81970       0.06530317
 C       -2.75380       1.36680       7.28980       0.06991384
 N       -3.26680       1.42370       8.50220       -0.24032818
 S       -4.76580       0.60160       8.49140       0.31584054
 N       -4.71120       0.16670       6.83540       -0.25366137
 C       -3.59290       0.63640       6.30940       0.09246440
 C       -3.11850       0.53740       4.96210       -0.01855881
 C       -3.91360       -0.22160       3.94810       0.25606648
 C       -5.33590       0.18330       3.77010       -0.13742477
 O       -3.39420       -1.11350       3.32610       -0.35836513
 H       1.44570       -1.38530       0.75440       0.06106551
 H       2.40080       -0.46240       -0.45550       0.07743290
 H       2.56450       -0.05630       1.28710       0.05989304
 H       -1.23920       2.18760       0.10560       0.06316337
 H       -3.08540       3.47780       1.37300       0.03100959
 H       -0.83970       2.44330       7.52640       0.06763231
 H       -5.95250       -0.18560       4.60850       0.08931570
 H       -5.76140       -0.22280       2.84200       0.06770364
 H       -5.45170       1.27920       3.74910       0.08333567
no frequencies
COc1cc(C=O)c(s1)c1ncc2nsnc2c1C(=O)C
