33
m_21281.out 0.2668
 C       1.82800       -0.07370       -0.93800       -0.05224890
 S       0.32020       0.01210       0.07180       -0.11397029
 C       -0.13370       1.72480       0.11730       0.04531274
 C       -0.50290       2.22360       1.35180       -0.06059940
 C       -0.93990       3.56250       1.46290       0.16529890
 O       -1.25820       3.93890       2.70170       -0.36619387
 C       -1.01360       4.41290       0.34090       -0.06650238
 C       -0.62800       3.88590       -0.90200       -0.04688049
 C       -0.20920       2.57430       -0.99830       0.08041391
 Cl       0.19060       2.01310       -2.56030       -0.15692183
 C       -1.46690       5.79810       0.53430       0.27491709
 O       -1.63460       6.27660       1.64710       -0.42920406
 N       -1.71270       6.57130       -0.60320       -0.14727047
 C       -2.10060       7.91980       -0.59180       0.08308891
 C       -2.53880       8.51390       -1.79620       0.07969054
 Cl       -2.62850       7.59570       -3.23270       -0.14846040
 C       -2.91010       9.84340       -1.87120       -0.03254285
 C       -2.84880       10.61780       -0.70910       -0.00036594
 C       -2.41580       10.06430       0.50020       -0.02381390
 C       -2.04200       8.72920       0.55670       -0.04044440
 N       -3.24080       12.01500       -0.76290       0.53942860
 O       -3.19040       12.66650       0.26730       -0.38031773
 O       -3.60190       12.46840       -1.83680       -0.38293644
 H       2.47340       -0.85800       -0.51780       0.06282718
 H       2.40280       0.85890       -0.93680       0.05957018
 H       1.61020       -0.34100       -1.97930       0.06253709
 H       -0.45960       1.62620       2.26820       0.08789535
 H       -1.51060       4.92750       2.74270       0.34948953
 H       -0.65260       4.50940       -1.80080       0.05818666
 H       -1.65190       6.11480       -1.51530       0.19941326
 H       -3.24800       10.29220       -2.81650       0.09801364
 H       -2.36920       10.68790       1.40300       0.09350031
 H       -1.69560       8.31820       1.51260       0.10908944
no frequencies
CSc1cc(O)c(cc1Cl)C(=O)Nc1c(Cl)cc(cc1)N(=O)=O
