23
f_2727.out 0.24321
 O       -0.11580       1.06050       0.74780       -0.20634050
 C       0.34530       -0.21730       0.45410       0.06787925
 C       1.62990       -0.19980       -0.03880       -0.06048083
 C       2.00800       1.17340       -0.06200       0.01285150
 C       0.92220       1.89000       0.42150       0.10012917
 C       1.04520       3.31640       0.50250       -0.00374710
 C       0.16490       4.24440       0.92790       -0.03693992
 C       0.54000       5.64710       0.91030       -0.00158842
 C       -0.25290       6.66640       1.31560       -0.15055792
 Si       0.73110       8.19070       1.08330       0.44361368
 C       2.20270       7.33790       0.41440       -0.15063722
 C       1.90290       6.01830       0.41130       0.00058337
 C       2.79800       4.96000       -0.03180       -0.04150427
 C       2.38530       3.68280       0.01380       0.03489891
 S       3.33100       2.23420       -0.48170       -0.10785840
 H       -0.37570       -0.97310       0.66210       0.06238798
 H       2.23100       -1.03190       -0.34420       0.05261020
 H       -0.82800       3.98250       1.29090       0.04263940
 H       -1.26200       6.57340       1.70070       0.02803934
 H       1.00540       8.86210       2.34220       -0.07781778
 H       0.12760       9.11070       0.13460       -0.07827890
 H       3.13550       7.78000       0.08610       0.02793384
 H       3.78360       5.26080       -0.38710       0.04218461
no frequencies
o1ccc2c1c1cc3[CH][SiH2][CH]c3cc1s2
