37
s_17496.out 0.25912
 C       0.64450       1.47160       -0.79260       0.02821690
 O       -0.54660       0.99820       -0.16460       -0.28199288
 C       -0.40860       0.50830       1.09850       0.35915521
 O       0.64900       0.46650       1.66590       -0.38088478
 C       -1.71540       0.07040       1.61210       -0.03808903
 C       -2.30730       0.72260       2.74140       0.00559238
 C       -3.48770       0.13380       3.12760       -0.03198676
 S       -3.87590       -1.20620       2.13040       0.07548091
 C       -2.46770       -0.98500       1.14360       0.00841917
 C       -2.23360       -1.83510       0.01200       0.14389559
 N       -2.58170       -3.12180       -0.10350       -0.25967543
 C       -2.18430       -3.52930       -1.37700       0.05845662
 C       -2.20060       -4.65260       -2.16520       -0.03220931
 S       -1.47600       -4.33450       -3.68620       0.09788750
 C       -1.11060       -2.66460       -3.32990       -0.03176976
 C       -1.55500       -2.37750       -2.05340       0.05583792
 N       -1.61260       -1.33390       -1.17120       -0.12943838
 N       -0.46050       -1.75370       -4.18870       0.53011519
 O       -0.13320       -2.11210       -5.30840       -0.39078490
 O       -0.25180       -0.62600       -3.75030       -0.42528192
 C       -1.71150       1.89180       3.37790       0.00562747
 C       -2.35520       3.12960       3.28810       -0.03433677
 C       -1.78900       4.25770       3.87430       -0.04983172
 C       -0.57780       4.10630       4.54830       0.17333120
 F       -0.03150       5.17380       5.11090       -0.21145139
 C       0.08570       2.88470       4.65580       -0.04666402
 C       -0.49420       1.77120       4.05640       -0.02776908
 H       1.43020       0.70860       -0.76010       0.07108010
 H       0.31790       1.66430       -1.82420       0.08591654
 H       0.97530       2.39040       -0.29650       0.06723618
 H       -4.10710       0.44700       3.95250       0.07057690
 H       -2.60570       -5.61540       -1.88850       0.08440480
 H       -1.23550       -0.40600       -1.30000       0.21782219
 H       -3.29830       3.21220       2.74760       0.04407616
 H       -2.27860       5.22700       3.80320       0.06087142
 H       1.03430       2.79930       5.18370       0.06527800
 H       0.00820       0.80080       4.10200       0.06288779
no frequencies
COC(=O)c1c(csc1c1nc2csc(c2[nH]1)N(=O)=O)c1ccc(F)cc1
