49
s_22629.out 0.27577
 C       1.69490       0.11650       0.11510       0.03431653
 O       0.31110       0.45560       0.08180       -0.28151327
 C       -0.27220       0.64460       1.29780       0.35326330
 O       0.34590       0.53160       2.32560       -0.40739697
 C       -1.68640       0.98190       1.12890       -0.03659084
 C       -2.28030       1.23990       -0.08050       -0.01590931
 S       -3.94440       1.62370       0.13240       0.04561315
 C       -3.85880       1.44530       1.84930       -0.03256163
 C       -2.59330       1.09670       2.24200       0.00301514
 C       -2.20200       0.86060       3.62770       0.03252777
 C       -2.40490       1.85790       4.58940       -0.03167283
 C       -2.02480       1.63650       5.90580       -0.02140428
 C       -1.44300       0.41420       6.26410       -0.00078985
 C       -1.23630       -0.59100       5.31090       0.04036833
 C       -1.62770       -0.35790       3.98920       -0.01760531
 C       -0.55110       -1.85640       5.60240       0.02013943
 C       0.85260       -1.82110       5.60880       -0.03511145
 C       1.61570       -2.97190       5.79570       -0.02808355
 C       1.00580       -4.21640       5.96470       -0.04999751
 C       -0.37440       -4.22230       5.94930       0.13084297
 O       -1.11850       -5.38480       6.08030       -0.23929608
 C       -2.44070       -4.97630       6.02270       0.12818143
 C       -3.49590       -5.86300       6.11680       -0.05460545
 C       -4.77060       -5.29840       6.06420       -0.03313478
 C       -4.93990       -3.92000       5.93840       -0.04996775
 C       -3.85350       -3.03660       5.84690       0.01709443
 C       -4.12520       -1.57870       5.75440       -0.10151950
 C       -2.56580       -3.56710       5.86440       -0.02162861
 C       -1.19950       -3.07050       5.78970       -0.01097966
 N       -1.06000       0.22090       7.65560       0.53660964
 O       -1.12080       1.19090       8.39930       -0.39218625
 O       -0.70730       -0.88480       8.02150       -0.38107497
 H       1.83350       -0.84440       0.62370       0.06404330
 H       1.95700       0.05100       -0.94680       0.07027299
 H       2.26640       0.90170       0.62170       0.06545938
 H       -1.79650       1.21370       -1.04710       0.07575211
 H       -4.71180       1.59160       2.48910       0.06149416
 H       -2.84410       2.81090       4.29870       0.05107814
 H       -2.17300       2.41470       6.66240       0.07950938
 H       -1.45690       -1.13020       3.23560       0.05307017
 H       1.35600       -0.86530       5.45670       0.04238679
 H       2.70260       -2.90070       5.80600       0.04355442
 H       1.58000       -5.12630       6.10180       0.05280237
 H       -3.34070       -6.92970       6.22890       0.04996788
 H       -5.64600       -5.94430       6.13020       0.03748147
 H       -5.94970       -3.51550       5.91700       0.03557570
 H       -5.17870       -1.32800       5.93730       0.04029839
 H       -3.87290       -1.18890       4.75640       0.03790196
 H       -3.53630       -1.01620       6.49510       0.04040910
no frequencies
COC(=O)c1cscc1c1ccc(c(c1)c1cccc2oc3cccc(C)c3c12)N(=O)=O
