35
a_8074.out 0.25544
 C       1.34240       -0.01650       -0.06470       0.03294282
 O       0.06420       -0.35330       0.46140       -0.28323991
 C       -0.54200       0.61710       1.21370       0.35156004
 O       -0.01280       1.67770       1.41430       -0.37679961
 C       -1.84080       0.14710       1.66520       -0.02610083
 S       -2.69380       -1.12240       0.92700       0.16568733
 C       -4.02050       -1.02010       1.96830       0.02428520
 C       -5.16080       -1.89250       1.87330       0.01389513
 C       -5.58240       -2.74800       2.87710       -0.03408628
 S       -7.01850       -3.60190       2.43880       0.07528402
 C       -7.08300       -2.86230       0.91460       0.01323741
 C       -6.01190       -1.97010       0.74800       -0.05803701
 C       -6.11170       -1.32810       -0.60100       0.23792106
 O       -5.36620       -0.53410       -1.09680       -0.33518734
 C       -7.34720       -1.93090       -1.18570       -0.04944321
 C       -7.89910       -2.84030       -0.26830       0.01109762
 S       -9.30450       -3.54660       -0.90160       0.05375111
 C       -9.17450       -2.65180       -2.38410       -0.03024060
 C       -8.07470       -1.82320       -2.38700       -0.02775699
 C       -3.83870       0.01240       2.89820       -0.03186867
 C       -4.72600       0.46250       3.91290       0.14117010
 F       -5.90090       -0.12050       4.04710       -0.18023777
 C       -4.38110       1.49810       4.74470       0.13329414
 F       -5.20230       1.91630       5.68700       -0.16427131
 C       -3.11870       2.14130       4.59860       0.13503444
 F       -2.81490       3.12370       5.42240       -0.16037192
 C       -2.24190       1.74180       3.61960       0.14642373
 F       -1.07510       2.34090       3.50640       -0.15352389
 C       -2.57420       0.68150       2.72930       -0.01687909
 H       2.05750       0.12020       0.75340       0.06618180
 H       1.59280       -0.89030       -0.67640       0.07132457
 H       1.28240       0.89270       -0.67290       0.06753864
 H       -5.10620       -2.88240       3.83390       0.06373996
 H       -9.89210       -2.76250       -3.17680       0.06053437
 H       -7.79200       -1.16370       -3.19710       0.06314091
no frequencies
COC(=O)c1sc(c2csc3-c4c(C(=O)c23)ccs4)c2c(F)c(F)c(F)c(F)c12
