27
f_5471.out 0.25945
 N       5.92740       -2.38690       2.75260       -0.27180541
 C       4.63450       -2.29770       2.31790       0.08381740
 C       3.63470       -1.96130       3.26390       -0.07014780
 C       2.30030       -1.86730       2.90560       -0.03431142
 C       1.89740       -2.10000       1.58790       -0.01496396
 C       0.49660       -1.98460       1.21540       -0.00270263
 C       -0.01170       -1.05920       0.34650       -0.02633349
 S       -1.72660       -1.25720       0.17930       -0.03207903
 C       -1.76210       -2.59370       1.29220       -0.02047735
 C       -0.51110       -2.86240       1.75890       -0.04934023
 C       2.87740       -2.43900       0.66230       0.02422192
 C       4.25260       -2.54680       0.96950       -0.02647329
 C       5.02050       -2.91400       -0.20640       -0.03537526
 C       4.25590       -3.08840       -1.32670       -0.00575748
 S       2.57380       -2.80840       -1.03000       -0.02101056
 C       6.46610       -3.09690       -0.29790       0.35558222
 O       6.82630       -3.47930       -1.55560       -0.39541727
 O       7.34610       -2.95850       0.52260       -0.42797178
 H       6.16650       -2.16070       3.69270       0.16474839
 H       6.67750       -2.57460       2.11180       0.21447739
 H       3.92370       -1.77340       4.29450       0.03183948
 H       1.55190       -1.60320       3.65500       0.03578553
 H       0.53250       -0.29220       -0.17460       0.04399466
 H       -2.67550       -3.10140       1.54030       0.04565997
 H       -0.25620       -3.64640       2.45620       0.03615370
 H       4.61200       -3.37020       -2.31040       0.07278761
 H       7.80370       -3.61580       -1.65040       0.32509866
no frequencies
Nc1ccc(c2cscc2)c2c1c(cs2)C(=O)O
