51
m_7961.out 0.30943
 C       2.52960       -5.58900       3.35660       -0.10114828
 C       1.03290       -5.44320       3.62840       -0.05000673
 C       0.24140       -5.43780       2.31600       -0.06007935
 C       -1.25770       -5.22970       2.60170       0.00806589
 N       -1.95640       -5.05930       1.29690       -0.20130507
 C       -2.41670       -6.37770       0.79450       0.01475756
 C       -3.10570       -6.22570       -0.57000       -0.05726730
 C       -4.32150       -5.30700       -0.42810       -0.05102363
 C       -3.85120       -3.94530       0.08380       -0.05168387
 C       -3.07250       -4.08740       1.40990       0.02071011
 C       -2.50570       -2.68270       1.70000       0.26978428
 O       -3.12090       -1.87610       2.36090       -0.41454525
 N       -1.29020       -2.39380       1.10760       -0.16623914
 C       -0.68290       -1.11290       1.17190       0.06347047
 C       -0.39610       -0.50430       2.41340       0.03373608
 C       -0.67640       -1.21030       3.68600       -0.10614020
 C       0.17420       0.77710       2.38440       -0.00818289
 C       0.51270       1.40780       1.18110       -0.02897102
 C       0.25390       0.77430       -0.02360       -0.04020379
 C       -0.35950       -0.48080       -0.04270       0.01461884
 C       -0.66720       -1.13420       -1.34480       -0.10710696
 N       0.44300       1.52020       3.60490       0.53672619
 O       -0.23350       1.30490       4.59600       -0.38087986
 O       1.33880       2.35230       3.57560       -0.39535215
 H       2.75040       -6.50190       2.79320       0.03445281
 H       2.91600       -4.74270       2.77710       0.03388765
 H       3.10010       -5.63460       4.29110       0.03610710
 H       0.84490       -4.50840       4.19150       0.02972207
 H       0.68520       -6.26720       4.27950       0.03087969
 H       0.40100       -6.38050       1.76300       0.03568740
 H       0.61090       -4.63800       1.64680       0.03379405
 H       -1.38860       -4.32560       3.23550       0.02574021
 H       -1.66020       -6.07670       3.19520       0.01847870
 H       -3.10280       -6.88480       1.50790       0.01262952
 H       -1.51660       -7.02420       0.69040       0.03262040
 H       -2.39280       -5.80700       -1.30630       0.03904691
 H       -3.40170       -7.21710       -0.95500       0.03362502
 H       -5.06490       -5.74790       0.26170       0.03641145
 H       -4.83900       -5.19390       -1.39860       0.03303636
 H       -4.71300       -3.26630       0.24000       0.04276145
 H       -3.21270       -3.46360       -0.68260       0.03249744
 H       -3.78470       -4.35470       2.23320       0.03275672
 H       -0.82260       -3.11630       0.56270       0.18970240
 H       -0.64240       -2.30420       3.58510       0.04379936
 H       0.01290       -0.94520       4.50170       0.06517143
 H       -1.69730       -0.95510       4.04570       0.10030557
 H       0.98180       2.39760       1.19640       0.07511428
 H       0.51970       1.26270       -0.96000       0.05285751
 H       -1.72020       -1.45700       -1.39470       0.05372099
 H       -0.04510       -2.02750       -1.50760       0.05132375
 H       -0.50140       -0.46930       -2.20400       0.05213584
no frequencies
CCCCN1CCCC[C@@H]1C(=O)Nc1c(C)c(ccc1C)N(=O)=O
