15
f_14760.out 0.28411
 Se       -0.71510       1.77610       0.43040       -0.07998530
 C       0.06110       0.12460       -0.12530       -0.02124424
 C       1.38890       0.21050       -0.29890       -0.04058132
 C       1.97280       1.51830       -0.03240       0.00750926
 C       3.32590       1.84750       -0.14250       -0.03323077
 C       3.73370       3.14540       0.14860       -0.03258952
 C       2.80570       4.11320       0.54830       -0.03145100
 C       1.45420       3.79320       0.66050       -0.03163342
 C       1.05250       2.50020       0.36850       0.02390491
 H       -0.58100       -0.71750       -0.25600       0.05305489
 H       2.02640       -0.60720       -0.61410       0.04091993
 H       4.04900       1.09640       -0.45120       0.03604541
 H       4.78580       3.41410       0.06600       0.03313993
 H       3.14350       5.12350       0.77260       0.03558346
 H       0.73320       4.54470       0.97280       0.04055778
no frequencies
[se]1ccc2ccccc12
