23
h_3527.out 0.24508
 C       1.45350       -0.12160       -0.00210       0.03581228
 O       0.02850       -0.00230       0.00650       -0.30513636
 C       -0.43610       0.61070       1.13040       0.10071236
 C       -0.74090       -0.15820       2.32210       0.04581766
 N       -0.38540       -1.49990       2.42970       -0.28033664
 C       -1.31520       0.61760       3.29890       -0.06201397
 S       -1.47440       2.26310       2.78670       -0.00796902
 C       -0.76880       1.94180       1.21560       0.00575158
 C       -0.60530       2.92670       0.20710       -0.02030563
 C       -0.27740       2.75270       -1.09690       -0.04332654
 C       -0.21450       4.06600       -1.78380       -0.01788441
 C       -0.50160       5.05160       -0.91360       -0.07687503
 C       -0.77560       4.42710       0.42920       0.24081595
 O       -1.05660       4.98910       1.44460       -0.30764985
 H       1.80350       -0.69580       0.86210       0.04539195
 H       1.64230       -0.66240       -0.93660       0.06050026
 H       1.91720       0.86910       -0.01970       0.03979411
 H       -0.27730       -1.99100       1.55890       0.17306879
 H       -0.85250       -2.03420       3.13770       0.15856391
 H       -1.63180       0.29670       4.27190       0.05080725
 H       -0.08530       1.82390       -1.60640       0.05791140
 H       0.03140       4.14670       -2.82770       0.04872123
 H       -0.55020       6.11090       -1.05620       0.05782872
no frequencies
COc1c(N)csc1C1=CC=CC1=O
