29
h_2565.out 0.27018
 C       -3.39290       7.44480       1.26000       -0.03197306
 S       -3.95050       6.13890       0.27570       0.02485040
 C       -3.11360       4.90640       1.20540       0.01192056
 C       -3.17460       3.51630       0.83690       -0.00675390
 C       -4.37650       2.79300       0.79710       -0.03621859
 C       -4.40510       1.44800       0.42600       -0.03648284
 C       -3.24110       0.75450       0.08060       -0.03154604
 C       -2.03830       1.43800       0.11850       -0.01265784
 C       -0.65320       1.10460       -0.14400       -0.01333831
 C       0.03140       -0.03260       -0.54110       -0.03090123
 C       1.41890       0.05070       -0.68190       -0.03635087
 C       2.11090       1.24090       -0.43370       -0.02956622
 C       1.44730       2.40290       -0.03280       -0.04702992
 C       0.07640       2.29840       0.09950       0.12946351
 O       -0.75360       3.34570       0.48810       -0.24059748
 C       -2.02970       2.80750       0.49840       0.12607375
 C       -2.43210       5.49950       2.22290       0.01262628
 S       -1.39690       5.04470       3.54700       -0.00011271
 N       -1.25860       6.78540       4.03990       -0.08607166
 N       -1.88720       7.56260       3.31960       -0.08890271
 C       -2.59660       6.95070       2.25060       0.04570403
 H       -3.65300       8.47720       1.08720       0.07063436
 H       -5.30810       3.28990       1.07210       0.04365831
 H       -5.35990       0.92440       0.40820       0.04299519
 H       -3.27870       -0.29370       -0.20720       0.04386347
 H       -0.49710       -0.96230       -0.73680       0.04066108
 H       1.97600       -0.83190       -0.99120       0.04017388
 H       3.19380       1.26360       -0.55620       0.04259769
 H       1.97300       3.33230       0.16450       0.05328086
no frequencies
c1sc(c2cccc3c4ccccc4oc23)c2snnc12
