22
f_2242.out 0.27676
 O       -4.27640       1.31060       -0.58510       -0.40186874
 C       -3.30090       0.50800       -0.06130       0.35968852
 O       -3.55210       -0.64150       0.18790       -0.40683900
 C       -2.07700       1.27920       0.13000       -0.03288689
 C       -2.09880       2.61960       0.39480       -0.00570627
 S       -0.50170       3.25900       0.60040       -0.02569341
 C       0.23960       1.69980       0.30580       0.02118742
 C       -0.74570       0.72200       0.06730       -0.00021325
 C       -0.31860       -0.58750       -0.20200       -0.00741734
 C       1.09430       -0.84040       -0.21450       0.03906252
 N       1.28370       -2.18720       -0.50310       -0.10738720
 C       0.02920       -2.78350       -0.66900       0.00027418
 C       -0.96080       -1.83260       -0.49230       -0.06588002
 C       2.06190       0.15370       0.03130       -0.04963979
 C       1.61980       1.43090       0.29400       -0.04329961
 H       -5.12920       0.83370       -0.73140       0.32072909
 H       -2.98200       3.24010       0.47110       0.06574035
 H       2.16090       -2.64480       -0.57140       0.16088665
 H       -0.06150       -3.82930       -0.89630       0.03939196
 H       -2.02030       -1.99330       -0.54750       0.06553994
 H       3.11910       -0.08940       0.01160       0.03410667
 H       2.33480       2.22970       0.49050       0.04022423
no frequencies
OC(=O)c1csc2c1c1c([nH]cc1)cc2
