32
m_28211.out 0.28999
 H       -5.45430       -1.02910       0.24260       0.15851502
 S       -6.53020       -1.31260       -0.50460       -0.23468362
 C       -6.07100       -0.59700       -2.05500       0.05908587
 C       -5.04110       0.33690       -2.18650       0.00630400
 C       -4.75660       0.88530       -3.44050       -0.02988938
 C       -5.49270       0.49720       -4.55540       -0.03250023
 C       -6.51480       -0.44220       -4.42120       -0.02806252
 C       -6.80720       -0.98900       -3.17470       -0.03424370
 C       -4.23990       0.76330       -1.03580       -0.00488415
 C       -3.07600       0.08020       -0.67260       0.16188394
 F       -2.70460       -0.96710       -1.38910       -0.21120684
 C       -2.29290       0.45050       0.41790       -0.07191965
 C       -2.68380       1.56030       1.16880       0.00570463
 C       -3.83650       2.26930       0.81430       -0.04448033
 C       -4.60840       1.87460       -0.27480       -0.03112873
 C       -1.88360       2.02780       2.34930       -0.05079048
 C       -1.12740       0.91080       3.06820       -0.10035920
 C       -0.87540       3.08840       1.93140       0.35897153
 O       -0.15810       2.85420       0.80300       -0.37453323
 O       -0.65240       4.09890       2.53640       -0.35782101
 H       -3.95420       1.61610       -3.54020       0.03663996
 H       -5.26980       0.92470       -5.53170       0.03879946
 H       -7.08500       -0.75250       -5.29600       0.04073086
 H       -7.61010       -1.72420       -3.09000       0.04729569
 H       -1.40810       -0.12950       0.67980       0.05731971
 H       -4.13580       3.14460       1.39220       0.04994185
 H       -5.50990       2.43190       -0.54040       0.05173229
 H       -2.58110       2.50660       3.09620       0.06801987
 H       -0.71210       1.26330       4.02360       0.05387865
 H       -1.79480       0.06920       3.29910       0.05144667
 H       -0.28660       0.52040       2.48170       0.04239479
 H       -0.41070       2.04640       0.30030       0.31783827
no frequencies
Sc1c(cccc1)c1c(F)cc(cc1)[C@@H](C)C(=O)O
