29
m_22326.out 0.31182
 F       -6.58880       0.12830       0.68180       -0.20916411
 C       -5.49550       -0.19460       0.00540       0.16423771
 C       -4.37100       -0.60530       0.70980       -0.04007143
 C       -3.22260       -0.93250       -0.01610       -0.04304009
 C       -3.24400       -0.84660       -1.41120       0.14795434
 O       -2.16870       -1.08840       -2.19610       -0.26008314
 C       -1.07040       -1.78000       -1.60500       0.07443652
 C       -0.73080       -1.35180       -0.17880       -0.04865119
 C       -1.99030       -1.32500       0.67960       0.23926823
 O       -1.95150       -1.60440       1.85000       -0.35645805
 C       -0.07380       -0.00250       -0.11010       0.01445718
 C       1.15150       0.12170       0.55040       -0.03436455
 C       1.78040       1.36190       0.63020       -0.02711122
 C       1.18600       2.48600       0.05940       -0.02927620
 C       -0.04010       2.36620       -0.59210       -0.02800552
 C       -0.66650       1.12550       -0.68060       -0.03546223
 C       -4.39070       -0.43400       -2.11060       -0.05408570
 C       -5.52840       -0.10270       -1.39220       -0.04230551
 H       -4.36090       -0.66960       1.80280       0.08605940
 H       -1.30890       -2.85940       -1.66010       0.04132454
 H       -0.25410       -1.53750       -2.31630       0.06413615
 H       -0.03780       -2.12610       0.25540       0.05975012
 H       1.61550       -0.74790       1.01300       0.03715016
 H       2.73600       1.45240       1.14400       0.03649502
 H       1.67630       3.45500       0.12490       0.03516090
 H       -0.51380       3.24240       -1.03210       0.03437235
 H       -1.62120       1.04600       -1.19830       0.03523047
 H       -4.36730       -0.37970       -3.19710       0.06800384
 H       -6.43380       0.22410       -1.90630       0.07004201
no frequencies
Fc1cc2c(OC[C@H](C2=O)c2ccccc2)cc1
