30
h_5765.out 0.28043
 N       1.57500       8.59440       -0.53460       -0.27279787
 C       2.24750       8.17010       -1.66120       0.06235167
 C       2.49070       9.05900       -2.78230       -0.06750356
 C       3.07480       8.42890       -3.83720       -0.01788003
 S       3.35100       6.74770       -3.50160       -0.06011977
 C       2.67860       6.87600       -1.89290       -0.01882561
 C       2.63160       5.74600       -1.03340       0.02522188
 C       1.87450       4.61600       -1.13500       -0.05593715
 C       2.12650       3.65790       -0.08640       -0.00350948
 C       3.06470       4.07930       0.81350       -0.02704853
 S       3.68050       5.64580       0.38330       -0.07778819
 C       1.44220       2.37450       -0.04040       -0.00405183
 C       2.18070       1.19560       0.11210       -0.03502330
 C       1.54860       -0.03870       0.14010       -0.06008380
 C       0.14750       -0.10180       0.01410       0.07831653
 N       -0.48890       -1.33960       -0.03570       -0.27765512
 C       -0.60250       1.08160       -0.12820       -0.06050314
 C       0.05010       2.30560       -0.16170       -0.03338037
 H       1.51370       9.57150       -0.34510       0.16488819
 H       1.54130       7.99170       0.26310       0.16167883
 H       2.21470       10.09990       -2.75140       0.03447481
 H       3.35110       8.86660       -4.78160       0.04589359
 H       1.15270       4.42460       -1.91580       0.03756807
 H       3.40590       3.55470       1.68670       0.03938255
 H       3.26640       1.25110       0.19940       0.02705409
 H       2.12850       -0.94900       0.24510       0.02548379
 H       -1.47790       -1.37930       0.08160       0.15825912
 H       0.00920       -2.15180       0.25860       0.15834852
 H       -1.68160       1.03540       -0.22260       0.02511301
 H       -0.52620       3.22460       -0.27930       0.02807308
no frequencies
Nc1ccsc1c1cc(cs1)c1ccc(N)cc1
