45
s_42208.out 0.27011
 N       2.50960       4.87810       -1.65790       -0.24463534
 C       2.68120       4.45120       -2.94070       0.09635325
 C       1.52500       4.15670       -3.71550       -0.06550495
 C       1.63540       3.63440       -4.98480       0.02812673
 C       2.90780       3.46860       -5.58060       -0.04738029
 C       4.03780       3.80390       -4.87300       -0.02545218
 C       3.95470       4.28570       -3.54660       -0.03222625
 N       5.17580       4.56660       -2.86080       0.52446296
 O       6.23400       4.43060       -3.45600       -0.40300364
 O       5.13720       4.93530       -1.68620       -0.43531874
 C       0.43800       3.22190       -5.71150       -0.00906006
 C       0.10740       3.62380       -6.97530       -0.02650825
 S       -1.38370       2.89960       -7.48220       -0.02689041
 C       -1.56800       2.03670       -5.98760       -0.02745044
 C       -0.53050       2.30680       -5.14230       -0.00110360
 C       -0.36810       1.73670       -3.81030       -0.00378042
 C       0.36100       0.56250       -3.63340       -0.04466353
 C       0.60400       0.03550       -2.36250       -0.06297167
 C       0.12580       0.67130       -1.21070       0.05850101
 N       0.32180       0.12870       0.07160       -0.29229390
 C       -0.64060       1.83740       -1.38620       0.02780571
 N       -1.18130       2.69960       -0.39990       -0.15793451
 C       -1.87960       3.71370       -1.08310       0.05076958
 C       -2.60940       4.77620       -0.55090       -0.05362212
 C       -3.12840       5.70370       -1.44650       -0.03216639
 C       -2.92720       5.58200       -2.82930       -0.04027385
 C       -2.20390       4.51930       -3.36030       -0.03358679
 C       -1.67830       3.57060       -2.49170       -0.01365368
 C       -0.89280       2.36850       -2.68270       -0.01980450
 H       1.61040       4.82240       -1.22470       0.17651980
 H       3.30990       5.07130       -1.07570       0.21866041
 H       0.54260       4.33740       -3.27920       0.05292899
 H       2.97720       3.06920       -6.58790       0.04454888
 H       5.02890       3.68930       -5.32890       0.07281252
 H       0.66260       4.29890       -7.60280       0.04842511
 H       -2.40290       1.38590       -5.79350       0.04763718
 H       0.76780       0.05110       -4.50670       0.02926442
 H       1.18310       -0.88070       -2.27210       0.03052830
 H       0.96930       -0.63740       0.12920       0.15851960
 H       0.45200       0.79090       0.81410       0.15578763
 H       -1.47460       2.35670       0.49300       0.15922884
 H       -2.76360       4.87480       0.51730       0.02716853
 H       -3.70560       6.54750       -1.06790       0.03040275
 H       -3.34490       6.33380       -3.49500       0.03011337
 H       -2.04670       4.42790       -4.43440       0.03071995
no frequencies
Nc1cc(ccc1N(=O)=O)c1cscc1c1ccc(N)c2[nH]c3ccccc3c12
