41
s_20098.out 0.279
 C       1.41920       0.17240       -0.21450       0.03524598
 O       0.14000       -0.21610       0.27630       -0.27843371
 C       -0.39350       0.59650       1.23110       0.34970712
 O       0.19760       1.56460       1.63940       -0.40668840
 C       -1.72280       0.12270       1.65050       -0.01819687
 C       -2.35680       -0.94810       1.01730       -0.02191366
 C       -3.61740       -1.35630       1.44290       -0.03115089
 C       -4.24890       -0.69640       2.50040       0.02662370
 C       -5.57080       -1.12660       2.94790       0.00023289
 C       -6.76640       -0.77310       2.22530       -0.04278904
 C       -7.90250       -1.22570       2.82570       -0.01976892
 S       -7.51980       -2.09730       4.28190       -0.02989197
 C       -5.81660       -1.84720       4.08290       -0.02537086
 C       -3.60500       0.37790       3.13070       0.01188724
 C       -2.34060       0.78720       2.71260       -0.01523999
 C       -4.26550       1.07470       4.25220       0.17293797
 N       -3.64890       0.96810       5.48920       -0.25664915
 C       -4.23690       1.53020       6.52730       0.07507582
 C       -5.48210       2.23140       6.40930       -0.00876861
 C       -6.15410       2.82190       7.49530       -0.07071309
 C       -7.36750       3.46060       7.27700       0.08315402
 N       -8.09170       3.98360       8.33770       -0.26760148
 C       -7.92550       3.53830       5.95690       -0.04462032
 C       -7.27170       2.98060       4.89660       -0.03553592
 C       -6.02900       2.30770       5.10520       0.09204348
 N       -5.39880       1.73110       4.03130       -0.26385844
 H       2.13730       0.25450       0.60920       0.06376347
 H       1.68290       -0.64480       -0.89460       0.06573752
 H       1.33750       1.12620       -0.74640       0.06064365
 H       -1.86550       -1.46630       0.19080       0.05793340
 H       -4.11590       -2.19370       0.95700       0.04430722
 H       -6.72420       -0.18800       1.31790       0.04270434
 H       -8.91440       -1.08650       2.49350       0.04846503
 H       -5.09030       -2.21550       4.78630       0.04485551
 H       -1.83240       1.61920       3.21340       0.06806535
 H       -3.73520       1.44050       7.49950       0.03770974
 H       -5.72140       2.76340       8.48840       0.03138637
 H       -7.65630       4.07230       9.23050       0.16560743
 H       -8.85370       4.59980       8.16010       0.16616282
 H       -8.88070       4.04210       5.82010       0.03852005
 H       -7.66760       3.02310       3.87880       0.05442121
no frequencies
COC(=O)c1ccc(c2ccsc2)c(c1)C1=N[CH]c2cc(N)ccc2[N]1
