44
m_19208.out 0.29322
 C       1.55850       0.27210       -0.26880       0.02925771
 O       0.61880       -0.33030       0.61350       -0.26475610
 C       -0.03740       0.48870       1.47070       0.14892347
 C       -0.76250       -0.20870       2.45310       -0.05059009
 C       -1.44480       0.51180       3.41930       -0.02758282
 C       -1.40080       1.91410       3.41520       -0.00190950
 C       -0.73080       2.59020       2.39140       -0.03317375
 C       -0.03660       1.88460       1.41500       -0.06615140
 C       -1.99250       2.66200       4.51030       0.07554020
 N       -3.18140       2.42960       5.05750       -0.13104638
 O       -3.36490       3.29430       6.11030       -0.14098612
 C       -2.24220       4.09520       6.21710       0.13065706
 C       -2.25360       5.05210       7.32990       -0.08838855
 C       -1.75280       4.42580       8.60660       0.36973599
 O       -0.68230       3.63750       8.36430       -0.37789658
 O       -2.18960       4.58950       9.71270       -0.37987280
 C       -1.34650       3.76120       5.23230       -0.03280516
 C       -0.04560       4.30270       4.91630       0.02300889
 C       1.02900       3.42710       4.73000       -0.02541417
 C       2.25290       3.92950       4.29200       -0.01108853
 C       2.43000       5.30900       4.12340       0.15390648
 O       3.68080       5.79220       3.86340       -0.29678075
 C       3.88060       6.13280       2.49090       0.03157552
 C       1.37030       6.18810       4.35500       -0.04665825
 C       0.13430       5.68100       4.73830       -0.03180899
 N       3.32640       2.99840       3.98330       0.55468091
 O       3.57780       2.12340       4.79020       -0.36959226
 O       3.88980       3.12130       2.90800       -0.38097153
 H       2.30940       0.84520       0.28710       0.05196122
 H       2.02150       -0.60390       -0.74470       0.06928884
 H       1.05050       0.89100       -1.01390       0.04670220
 H       -0.76860       -1.29630       2.44650       0.06028564
 H       -2.01090       -0.00780       4.19670       0.05456553
 H       -0.74270       3.68070       2.36290       0.03013968
 H       0.49040       2.41910       0.63220       0.04203109
 H       -1.61480       5.94130       7.09590       0.08646790
 H       -3.28040       5.46300       7.50780       0.09676050
 H       -0.31360       3.20430       9.17850       0.33548996
 H       0.90140       2.35260       4.90760       0.07260942
 H       4.92280       6.48000       2.48930       0.07335795
 H       3.77530       5.24350       1.85690       0.06277761
 H       3.19930       6.93000       2.18500       0.03904081
 H       1.52760       7.25880       4.23540       0.06667971
 H       -0.70550       6.35990       4.88850       0.05202941
no frequencies
COc1ccc(cc1)c1noc(CC(=O)O)c1c1cc(c(OC)cc1)N(=O)=O
