38
s_29290.out 0.25162
 C       -0.88960       -1.09480       -0.47900       0.02614971
 O       -0.65100       0.28960       -0.24760       -0.26486203
 C       -0.68850       0.70610       1.04240       0.14873673
 C       -0.38850       2.11890       1.13230       -0.04324531
 C       -0.35960       2.73640       2.34260       -0.03086257
 C       -0.62440       1.97170       3.51580       -0.01567421
 C       -0.66080       2.25790       4.86530       0.07048828
 O       -0.95590       1.14500       5.59190       -0.19999320
 C       -1.11950       0.09130       4.69090       0.09066409
 C       -1.41640       -1.18900       5.27070       0.09822868
 C       -1.50100       -1.33710       6.69740       -0.03968624
 C       -1.75970       -2.57200       7.22340       -0.01839565
 C       -1.94690       -3.68050       6.35460       -0.00624974
 C       -2.20740       -4.99990       6.80080       -0.01652181
 C       -2.37880       -6.00060       5.87840       -0.03590447
 C       -2.29930       -5.66970       4.49540       0.07656418
 N       -2.05250       -4.45770       4.03280       -0.23422856
 C       -1.86250       -3.44460       4.94910       0.16044946
 N       -1.59440       -2.20400       4.42600       -0.25186050
 C       -2.49690       -6.76040       3.46730       0.24293838
 C       -3.28770       -6.40360       2.25680       -0.13515266
 O       -2.03980       -7.85470       3.67350       -0.34968444
 C       -0.92850       0.55220       3.39900       0.00000504
 C       -0.96530       -0.07350       2.13010       -0.07401857
 H       -1.92460       -1.35020       -0.22780       0.05141410
 H       -0.71420       -1.18440       -1.55810       0.06707664
 H       -0.18160       -1.71730       0.08040       0.05279019
 H       -0.19110       2.64920       0.20250       0.05771237
 H       -0.13780       3.79690       2.44430       0.04110525
 H       -0.51240       3.13290       5.45700       0.05899466
 H       -1.35470       -0.46290       7.32890       0.05152433
 H       -1.82590       -2.72750       8.30140       0.03777788
 H       -2.26310       -5.20060       7.87160       0.03980591
 H       -2.55920       -7.03530       6.16790       0.05270133
 H       -3.24100       -7.18920       1.49000       0.06770322
 H       -4.34640       -6.23700       2.50450       0.07065219
 H       -2.91990       -5.46200       1.80600       0.08398096
 H       -1.20790       -1.13510       2.08420       0.06887638
no frequencies
COc1ccc2coc(c3ccc4ccc(nc4n3)C(=O)C)c2c1
