40
s_10199.out 0.25658
 C       -0.10080       1.07390       0.88660       -0.03171074
 N       0.34580       0.04240       -0.06000       -0.20177749
 C       -0.19970       -1.24810       0.07120       0.05900902
 C       0.51090       -2.31570       -0.53180       -0.06609998
 C       0.00700       -3.60910       -0.53840       -0.01223409
 C       0.75100       -4.71110       -1.15630       0.01210812
 C       1.04110       -4.61630       -2.56700       -0.03320194
 C       1.72210       -5.59640       -3.21820       -0.03326464
 C       2.15830       -6.73810       -2.48470       -0.01195780
 C       2.85170       -7.88280       -2.80660       0.05333859
 O       3.01170       -8.66850       -1.69100       -0.19164957
 C       2.41130       -8.02410       -0.63710       0.05127750
 C       1.86720       -6.83160       -1.05820       -0.01227428
 C       1.14960       -5.78480       -0.41470       -0.04366339
 C       -1.23290       -3.82640       0.06880       0.03455260
 N       -1.95690       -5.02300       0.21690       -0.13784441
 C       -3.15060       -4.72710       0.87390       0.05306893
 C       -4.19250       -5.58530       1.23670       -0.05470402
 C       -5.26690       -5.02720       1.91490       -0.03340451
 C       -5.31320       -3.65820       2.22530       -0.04368927
 C       -4.27750       -2.80320       1.86650       -0.03258404
 C       -3.18410       -3.32770       1.18850       -0.01543762
 C       -1.96090       -2.75500       0.67430       -0.01485981
 C       -1.44200       -1.46870       0.68180       -0.06253438
 H       0.46520       2.00310       0.70930       0.03936050
 H       -1.16740       1.30420       0.70800       0.04823921
 H       0.02220       0.78280       1.94310       0.02987586
 H       1.34490       0.06910       -0.23370       0.14535723
 H       1.47260       -2.12030       -1.00210       0.02350037
 H       0.68820       -3.72790       -3.09120       0.03422833
 H       1.94650       -5.53910       -4.28030       0.02976512
 H       3.28040       -8.29450       -3.68800       0.05108239
 H       2.47840       -8.54960       0.28480       0.05042052
 H       0.94860       -5.85750       0.65230       0.02911264
 H       -1.71630       -5.88830       -0.20820       0.15540792
 H       -4.15940       -6.64180       0.99920       0.02295639
 H       -6.09780       -5.66440       2.21620       0.02522168
 H       -6.17580       -3.26510       2.75570       0.02443076
 H       -4.31570       -1.74330       2.10750       0.02726033
 H       -2.00080       -0.66390       1.14500       0.03331799
no frequencies
CNc1cc(c2ccc3cocc3c2)c2[nH]c3ccccc3c2c1
