45
m_30212.out 0.31637
 C       3.25960       2.12070       0.56340       -0.11460846
 C       1.80900       2.31540       0.11110       0.02055183
 C       1.73480       2.48910       -1.40560       -0.11971904
 C       1.01480       1.04890       0.53330       0.07267278
 O       -0.35070       1.47620       0.33320       -0.30568938
 P       -1.60520       0.50630       0.39660       0.67235643
 O       -1.22580       -0.78510       -0.47450       -0.42927225
 O       -1.57810       -0.11160       1.86390       -0.41219637
 O       -2.79160       1.26720       0.05800       -0.46756472
 C       1.18440       3.55790       0.79660       0.08825393
 O       1.01280       3.31470       2.17950       -0.45537986
 C       2.10960       4.77480       0.68310       0.27038938
 O       2.31680       5.31170       -0.38820       -0.42850763
 N       2.67650       5.24420       1.84390       -0.16917431
 C       3.63080       6.34950       1.80770       0.00866840
 C       5.05080       5.83590       2.11770       -0.09442478
 C       6.06530       6.94070       1.93540       0.27481302
 O       6.86910       6.96420       1.02770       -0.41262962
 N       6.05650       7.94290       2.89130       -0.19656357
 C       6.97540       9.07810       2.75120       0.00939075
 C       6.37050       10.13870       1.81990       -0.00259929
 S       7.51650       11.54080       1.56510       -0.27484599
 H       3.67070       1.16890       0.21210       0.04037827
 H       3.90840       2.91290       0.16470       0.05298235
 H       3.34430       2.14480       1.65670       0.04556279
 H       0.69620       2.56800       -1.75340       0.04839610
 H       2.25140       3.40590       -1.73160       0.07417065
 H       2.19580       1.64880       -1.93290       0.03946324
 H       1.30330       0.18680       -0.09700       0.04840902
 H       1.19520       0.80190       1.59760       0.04886642
 H       -1.61900       -0.70000       -1.40920       0.35133920
 H       -1.36020       -1.11330       1.80980       0.35346794
 H       0.19440       3.81340       0.34480       0.05754956
 H       0.23090       2.73530       2.31920       0.30228509
 H       2.50130       4.79110       2.72790       0.19067278
 H       3.31990       7.12620       2.54080       0.03733924
 H       3.61280       6.83070       0.79450       0.08577310
 H       5.30620       5.00550       1.41920       0.07331434
 H       5.10970       5.39950       3.13130       0.04804942
 H       5.36570       7.98880       3.61590       0.16583521
 H       7.18560       9.49570       3.76160       0.05023877
 H       7.94800       8.70210       2.34440       0.07511594
 H       6.09500       9.68040       0.84870       0.06116474
 H       5.43640       10.55440       2.24150       0.05047851
 H       8.40350       10.96560       0.74270       0.16522606
no frequencies
CC(C)(COP(=O)(O)O)[C@@H](O)C(=O)NCCC(=O)NCCS
