32
s_17078.out 0.25497
 C       1.62750       -0.11310       0.20760       0.03782203
 O       0.27600       -0.39360       0.55480       -0.28066619
 C       -0.30040       0.45530       1.44620       0.35348795
 O       0.29390       1.38620       1.93310       -0.39881722
 C       -1.67590       0.06020       1.70540       -0.03233478
 Se       -2.61560       0.93360       3.14460       -0.01381912
 C       -4.09100       -0.18150       2.70190       0.00158101
 C       -5.34860       -0.35900       3.17260       -0.03264806
 S       -6.16040       -1.57860       2.22130       0.02669829
 C       -4.79530       -1.84300       1.19400       -0.02530746
 C       -3.76380       -1.03030       1.57620       -0.01098499
 C       -2.41760       -0.86430       1.05990       0.01463849
 C       -1.99150       -1.66000       -0.09040       -0.00195086
 C       -1.64010       -2.97700       -0.01280       0.05583188
 S       -1.59840       -3.88560       1.49960       -0.22351095
 C       -1.26730       -3.73050       -1.18210       -0.03279500
 C       -1.23330       -3.15410       -2.41370       -0.03265528
 C       -1.57070       -1.77640       -2.54520       -0.01117298
 C       -1.62500       -0.89260       -3.59900       0.05643998
 O       -2.02120       0.34650       -3.15780       -0.18259354
 C       -2.22580       0.26190       -1.80270       0.05685534
 C       -1.96300       -1.01670       -1.36490       -0.00979559
 H       2.25870       -0.10130       1.10200       0.06706238
 H       1.88510       -0.94950       -0.45340       0.06810576
 H       1.68770       0.84470       -0.31910       0.06248347
 H       -5.83110       0.13840       3.99170       0.06265687
 H       -4.79620       -2.55330       0.38300       0.06064330
 H       -1.84470       -2.91720       2.39500       0.16038706
 H       -1.00690       -4.78480       -1.06430       0.04978700
 H       -0.95520       -3.71360       -3.30430       0.04152533
 H       -1.43890       -0.94000       -4.64450       0.05926435
 H       -2.53650       1.17440       -1.35050       0.05378152
no frequencies
COC(=O)c1[se]c2cscc2c1c1c(S)ccc2cocc12
