69
m_13792.out 0.30818
 C       -5.92400       6.21570       -6.75160       -0.03272650
 N       -6.64400       5.82870       -7.96930       -0.19250018
 C       -7.47180       4.70400       -7.94010       0.06810482
 C       -7.87470       4.14530       -9.17270       -0.06461298
 C       -8.77370       3.08920       -9.18600       -0.03147010
 C       -9.28080       2.56850       -7.99600       -0.05580094
 C       -8.88270       3.11960       -6.77780       0.01031138
 C       -9.42380       2.56230       -5.49480       -0.05765452
 C       -8.45270       1.51350       -4.94270       -0.07927441
 C       -9.05500       0.83710       -3.74790       0.35686073
 O       -10.21910       0.72570       -3.46440       -0.40511622
 O       -8.05950       0.32910       -2.98250       -0.28103086
 C       -8.41230       -0.37920       -1.79120       0.10689878
 C       -8.40450       -1.89190       -2.11250       -0.06206526
 C       -7.06790       -2.45940       -1.57870       -0.06008168
 C       -6.20910       -1.20690       -1.34420       -0.02630139
 C       -4.99710       -1.29990       -0.42170       -0.02275655
 C       -4.04060       -2.41070       -0.88130       -0.05378223
 C       -2.77240       -2.42570       -0.01190       -0.06058794
 C       -2.15760       -1.06310       -0.08250       0.03284164
 C       -0.96570       -0.84250       -0.65210       -0.07976921
 C       -0.43370       0.51350       -0.84660       0.23637179
 O       0.70730       0.72320       -1.18300       -0.37672989
 C       -1.41310       1.64820       -0.64520       -0.08068184
 C       -2.28630       1.36380       0.57500       -0.05737914
 C       -3.04290       0.02990       0.45730       -0.02284399
 C       -4.29060       0.08680       -0.46170       -0.01763607
 C       -5.25740       1.20840       -0.03960       -0.05744173
 C       -6.55140       1.21670       -0.87390       -0.05567883
 C       -7.22330       -0.15600       -0.81650       0.01221780
 C       -7.75230       -0.43860       0.59560       -0.10978935
 C       -7.97660       4.17700       -6.73940       -0.06810766
 H       -5.31630       5.39790       -6.32860       0.03200706
 H       -6.64540       6.55000       -5.98250       0.04886088
 H       -5.26060       7.06970       -6.97040       0.04145100
 H       -6.12560       5.98200       -8.82440       0.14856700
 H       -7.49290       4.54780       -10.10460       0.02111245
 H       -9.08710       2.66100       -10.13830       0.02478454
 H       -9.98370       1.74200       -8.02060       0.02603104
 H       -10.42950       2.11070       -5.64650       0.05408448
 H       -9.58900       3.36760       -4.74950       0.03976243
 H       -7.47510       1.97660       -4.68930       0.05977873
 H       -8.21900       0.74930       -5.71740       0.06750386
 H       -9.38170       -0.01120       -1.40950       0.04807776
 H       -8.49380       -2.04830       -3.20090       0.04500293
 H       -9.26830       -2.39720       -1.65520       0.03929416
 H       -7.21610       -3.02970       -0.64880       0.03301277
 H       -6.60080       -3.14810       -2.29760       0.03437578
 H       -5.85140       -0.86010       -2.35070       0.04081319
 H       -5.32320       -1.51720       0.62030       0.03643059
 H       -3.76790       -2.26450       -1.94390       0.03390457
 H       -4.54670       -3.39170       -0.82880       0.03736216
 H       -2.07850       -3.21470       -0.36150       0.03947583
 H       -3.02300       -2.69320       1.03370       0.04247163
 H       -0.33020       -1.64420       -1.02270       0.05431871
 H       -0.87170       2.60790       -0.53000       0.05327586
 H       -2.02960       1.75970       -1.55940       0.05179422
 H       -1.64930       1.33680       1.48360       0.03424896
 H       -2.99240       2.19840       0.74130       0.03938839
 H       -3.38340       -0.25440       1.48620       0.03804968
 H       -3.95450       0.28570       -1.50670       0.03204147
 H       -5.50320       1.11140       1.03360       0.03356481
 H       -4.75870       2.19080       -0.15040       0.03413121
 H       -6.31890       1.48400       -1.92360       0.04087033
 H       -7.23570       2.00250       -0.50790       0.03186390
 H       -8.19960       -1.43610       0.66960       0.04062437
 H       -6.95740       -0.38690       1.34680       0.04282318
 H       -8.51730       0.29200       0.88290       0.03770729
 H       -7.67680       4.59560       -5.78570       0.02934528
no frequencies
CNc1cccc(CCC(=O)O[C@H]2CC[C@@H]3[C@H]4CCC5=CC(=O)CC[C@H]5[C@@H]4CC[C@@]23C)c1
