23
f_5046.out 0.26592
 O       1.22820       -0.02500       0.00000       -0.31164887
 C       0.03360       -0.04290       0.00010       0.24190139
 C       -0.87340       -1.26030       -0.00010       -0.06667011
 C       -2.16410       -0.86260       0.00010       -0.01920648
 C       -2.20500       0.60350       -0.00010       0.02205792
 C       -0.91280       1.11160       0.00000       -0.05397277
 C       -0.85170       2.52050       0.00000       0.00056717
 C       -2.13530       3.09170       0.00000       0.02273790
 S       -3.37450       1.85200       0.00000       0.01560765
 C       -2.28430       4.49770       0.00000       -0.00796643
 C       -1.07670       5.26830       0.00000       0.15541133
 N       -1.09540       6.63840       0.00000       -0.20638417
 C       -2.26760       7.25490       0.00010       0.06345996
 C       -3.51270       6.56880       0.00000       -0.03663910
 C       -3.51430       5.19420       -0.00010       -0.01631738
 N       0.18640       4.68890       0.00000       -0.21039367
 C       0.29370       3.38280       0.00000       0.06623661
 H       -0.46420       -2.25040       0.00000       0.07024244
 H       -3.04910       -1.47540       -0.00010       0.05908361
 H       -2.23390       8.35370       0.00000       0.05246874
 H       -4.43770       7.13930       0.00000       0.04454300
 H       -4.45450       4.64240       0.00000       0.04271272
 H       1.30820       2.95090       0.00000       0.07216855
no frequencies
O=C1C=Cc2c1c1c(s2)c2c(nccc2)nc1
