43
a_2618.out 0.26246
 C       1.40520       0.23640       -0.06640       0.03681635
 O       0.07300       -0.09550       0.30940       -0.28099172
 C       -0.49870       0.71910       1.23910       0.36509705
 O       0.04650       1.69420       1.67250       -0.38479510
 C       -1.86700       0.17580       1.57250       -0.04234786
 C       -2.89880       1.28050       1.53270       0.00849957
 C       -3.30800       2.04700       0.46120       -0.03255173
 C       -4.27730       3.03430       0.68600       -0.02881011
 C       -4.81800       3.22980       1.95350       -0.03006723
 C       -4.41310       2.44300       3.03900       -0.02993195
 C       -3.45470       1.46940       2.82370       0.00717008
 C       -2.84030       0.51280       3.74200       0.00775192
 C       -3.03500       0.30800       5.09580       -0.03051370
 C       -2.28500       -0.68690       5.73520       -0.02727021
 C       -1.37040       -1.45870       5.02840       -0.02506567
 C       -1.17710       -1.26240       3.65040       0.01130225
 C       -0.20670       -2.07210       2.92700       0.01372434
 C       -0.50210       -2.92680       1.88330       -0.03588228
 S       0.92090       -3.68280       1.24730       0.03174211
 C       1.92960       -2.88160       2.35150       0.01025446
 C       1.17800       -2.05720       3.20320       -0.05663691
 C       2.09390       -1.37530       4.17090       0.23672745
 O       1.81510       -0.64010       5.07150       -0.33126964
 C       3.44990       -1.86420       3.76600       -0.05219098
 C       3.32000       -2.75900       2.69380       0.01180831
 S       4.84340       -3.33530       2.21030       0.02764918
 C       5.66260       -2.39630       3.42510       -0.03025623
 C       4.78110       -1.65870       4.18090       -0.02928604
 C       -1.90570       -0.27030       3.01860       0.00207828
 H       2.07290       0.11650       0.79400       0.05506282
 H       1.63290       -0.49140       -0.85170       0.06874552
 H       1.45080       1.26280       -0.44620       0.06558972
 H       -2.14280       -0.66210       0.88370       0.06397296
 H       -2.89010       1.90070       -0.53120       0.03094918
 H       -4.60470       3.65780       -0.14400       0.03535492
 H       -5.56530       4.00590       2.10730       0.03525733
 H       -4.84040       2.59900       4.02570       0.03737102
 H       -3.74560       0.91020       5.65530       0.03964409
 H       -2.41370       -0.85100       6.80380       0.04004825
 H       -0.77940       -2.21680       5.54240       0.04149009
 H       -1.47960       -3.12360       1.48240       0.05028253
 H       6.73090       -2.42360       3.53160       0.05466457
 H       5.05250       -0.99720       4.99350       0.05881300
no frequencies
COC(=O)[C@@H]1c2ccccc2-c2cccc(c3csc4-c5c(C(=O)c34)ccs5)c12
