152
m_14362.out 0.33604
 C       1.47000       0.30580       0.69460       0.03800377
 O       0.11100       0.25440       1.11390       -0.28000027
 C       -0.21280       1.06110       2.16470       0.34351642
 O       0.62250       1.77130       2.67580       -0.42966489
 C       -1.62950       0.93070       2.52280       -0.04675875
 C       -2.39970       -0.13050       1.80320       -0.05487625
 C       -2.89250       0.39900       0.44270       -0.05662779
 C       -3.76270       -0.62930       -0.21990       0.00265755
 C       -5.21490       -0.55800       0.11920       -0.09961156
 C       -3.23010       -1.52910       -1.05660       -0.05678328
 C       -3.99020       -2.58980       -1.77950       -0.05017126
 C       -3.94160       -2.32440       -3.29690       -0.05589831
 C       -4.78090       -3.33550       -4.02080       0.00160083
 C       -6.25490       -3.09810       -3.99190       -0.10055349
 C       -4.21430       -4.37990       -4.63930       -0.05900103
 C       -4.96530       -5.44570       -5.36430       -0.05061659
 C       -4.26280       -5.80570       -6.68640       -0.05747694
 C       -5.06400       -6.83640       -7.42780       0.00173879
 C       -6.26400       -6.32710       -8.15550       -0.09997338
 C       -4.70000       -8.12520       -7.40730       -0.05886451
 C       -5.42050       -9.23010       -8.10400       -0.05039552
 C       -4.43130       -10.06780       -8.93620       -0.05701655
 C       -5.16830       -11.13480       -9.69180       0.00194180
 C       -5.83090       -10.69650       -10.95580       -0.09993080
 C       -5.21130       -12.39150       -9.23010       -0.05887863
 C       -5.90900       -13.52520       -9.90370       -0.05041891
 C       -4.96210       -14.73350       -10.03240       -0.05701240
 C       -5.63500       -15.83110       -10.80430       0.00210198
 C       -5.59220       -15.69740       -12.29070       -0.10003194
 C       -6.22740       -16.84930       -10.16700       -0.05877621
 C       -6.92200       -17.98890       -10.83400       -0.05027034
 C       -6.38070       -19.32770       -10.29710       -0.05689508
 C       -7.00130       -20.46960       -11.04800       0.00226676
 C       -6.37490       -20.79750       -12.36300       -0.09992052
 C       -8.05150       -21.12830       -10.54060       -0.05871819
 C       -8.74510       -22.27170       -11.20160       -0.05043666
 C       -8.79480       -23.48380       -10.25160       -0.05658764
 C       -9.37460       -24.66830       -10.96770       0.00211979
 C       -8.43500       -25.41210       -11.85850       -0.10009294
 C       -10.66110       -25.00380       -10.80480       -0.05903174
 C       -11.33530       -26.14850       -11.48390       -0.05059983
 C       -12.10530       -27.00360       -10.45970       -0.05702091
 C       -12.68440       -28.21160       -11.13630       0.00205626
 C       -11.73600       -29.33980       -11.37550       -0.10027602
 C       -13.97370       -28.24120       -11.49860       -0.05939834
 C       -14.63490       -29.38130       -12.19790       -0.05017321
 C       -16.00010       -29.69500       -11.55750       -0.05763158
 C       -16.62990       -30.86650       -12.25280       0.00456072
 C       -16.15440       -32.21350       -11.81930       -0.09932454
 C       -17.55610       -30.68150       -13.20290       -0.05968849
 C       -18.23420       -31.78020       -13.95200       -0.04748335
 C       -19.63400       -32.02720       -13.35680       -0.05741905
 C       -20.29880       -33.16010       -14.08380       0.01852905
 C       -20.01230       -34.51930       -13.54530       -0.10888988
 C       -21.09060       -32.92430       -15.13920       -0.07955099
 C       -21.76110       -33.99470       -15.93520       0.08316531
 O       -20.82930       -34.90910       -16.49470       -0.45078466
 C       -2.17950       1.75310       3.44310       0.03886778
 C       -3.62240       1.66170       3.81230       -0.10748341
 C       -1.39350       2.79320       4.15740       -0.11298589
 H       2.12970       -0.01620       1.50720       0.05762268
 H       1.49420       -0.39850       -0.14460       0.06143023
 H       1.73190       1.32000       0.37520       0.05799119
 H       -1.77170       -1.03410       1.64100       0.04817181
 H       -3.25640       -0.49130       2.40550       0.03839352
 H       -3.43510       1.35390       0.57610       0.03048579
 H       -2.01570       0.64950       -0.19100       0.03920468
 H       -5.40030       -0.01490       1.05440       0.03415759
 H       -5.77310       -0.04140       -0.67540       0.04030826
 H       -5.66310       -1.55410       0.23670       0.03785460
 H       -2.16010       -1.52850       -1.26620       0.02827712
 H       -5.04410       -2.65070       -1.44580       0.03402707
 H       -3.55590       -3.58740       -1.56020       0.02988885
 H       -4.29780       -1.29690       -3.51070       0.03196488
 H       -2.89080       -2.34560       -3.64690       0.02935137
 H       -6.53030       -2.21730       -3.39780       0.03730452
 H       -6.65040       -2.93880       -5.00570       0.03870725
 H       -6.79030       -3.95640       -3.56170       0.03771989
 H       -3.13380       -4.51570       -4.63200       0.02545995
 H       -6.01150       -5.14640       -5.57240       0.03625876
 H       -5.04180       -6.34980       -4.72320       0.03201183
 H       -4.13220       -4.89520       -7.30460       0.03176642
 H       -3.23580       -6.16620       -6.48050       0.02885762
 H       -6.40010       -5.24400       -8.03970       0.03663978
 H       -6.19270       -6.52760       -9.23420       0.03859719
 H       -7.18430       -6.80710       -7.79330       0.03762763
 H       -3.82040       -8.44830       -6.85150       0.02478644
 H       -5.92620       -9.87920       -7.35810       0.03109957
 H       -6.22920       -8.85300       -8.75960       0.03513848
 H       -3.87590       -9.40910       -9.63350       0.03161014
 H       -3.65930       -10.50520       -8.27320       0.02896226
 H       -5.74500       -9.61550       -11.12580       0.03662319
 H       -5.38720       -11.19580       -11.82940       0.03871469
 H       -6.90400       -10.93530       -10.95080       0.03743879
 H       -4.72010       -12.66140       -8.29630       0.02490855
 H       -6.80860       -13.81390       -9.32070       0.03096162
 H       -6.28790       -13.24420       -10.90570       0.03510845
 H       -4.02280       -14.42330       -10.53240       0.03178117
 H       -4.65370       -15.08000       -9.02660       0.02882977
 H       -5.18710       -14.73030       -12.61610       0.03691560
 H       -4.96040       -16.47890       -12.73750       0.03893534
 H       -6.59300       -15.79030       -12.73520       0.03715242
 H       -6.23550       -16.89800       -9.07880       0.02477588
 H       -8.01500       -17.92510       -10.64880       0.03050145
 H       -6.81060       -17.95920       -11.93530       0.03491523
 H       -5.27670       -19.35100       -10.39140       0.03178244
 H       -6.58080       -19.40510       -9.21050       0.02887539
 H       -5.60440       -20.07270       -12.65670       0.03696396
 H       -5.89390       -21.78620       -12.33430       0.03894483
 H       -7.11870       -20.81740       -13.17190       0.03716116
 H       -8.47330       -20.84930       -9.57580       0.02461180
 H       -9.77700       -21.97510       -11.48430       0.03018906
 H       -8.25560       -22.56440       -12.15080       0.03522435
 H       -7.77630       -23.71230       -9.87890       0.03169008
 H       -9.38340       -23.23000       -9.34850       0.02880329
 H       -7.43660       -24.95760       -11.89440       0.03702147
 H       -8.30370       -26.44960       -11.51810       0.03869102
 H       -8.80820       -25.44950       -12.89170       0.03751489
 H       -11.31120       -24.42830       -10.14720       0.02485406
 H       -12.03710       -25.76580       -12.25480       0.03090176
 H       -10.61700       -26.78740       -12.03400       0.03574956
 H       -11.42760       -27.30470       -9.63600       0.03199158
 H       -12.89470       -26.39350       -9.97880       0.02894466
 H       -10.71670       -29.11490       -11.03590       0.03717088
 H       -12.05860       -30.24780       -10.84540       0.03864921
 H       -11.67050       -29.58900       -12.44400       0.03764339
 H       -14.62920       -27.39320       -11.30540       0.02519090
 H       -14.77450       -29.12840       -13.27080       0.03156796
 H       -14.00620       -30.29340       -12.19160       0.03563271
 H       -15.86990       -29.90300       -10.47670       0.03253730
 H       -16.65250       -28.80120       -11.60470       0.02950965
 H       -15.32560       -32.15970       -11.10130       0.03714965
 H       -16.96490       -32.78020       -11.33790       0.04057593
 H       -15.80040       -32.81160       -12.67150       0.03717159
 H       -17.88170       -29.68170       -13.48390       0.02420477
 H       -17.64450       -32.71800       -13.93120       0.03208513
 H       -18.32460       -31.51650       -15.02560       0.02576099
 H       -19.54780       -32.24600       -12.27390       0.03599272
 H       -20.23560       -31.09890       -13.41820       0.03100589
 H       -18.98820       -34.60850       -13.16070       0.03998510
 H       -20.69600       -34.76130       -12.71820       0.04354730
 H       -20.13890       -35.30840       -14.30580       0.06079947
 H       -21.28380       -31.91050       -15.48010       0.02550659
 H       -22.36070       -33.58880       -16.77210       0.01900398
 H       -22.40730       -34.64810       -15.31490       0.04730893
 H       -20.04310       -34.43260       -16.82410       0.28228519
 H       -3.80220       0.79660       4.47050       0.05446998
 H       -3.98360       2.55130       4.34530       0.04745011
 H       -4.26790       1.53760       2.92930       0.05147508
 H       -1.97800       3.37550       4.87760       0.04278765
 H       -0.92870       3.50510       3.45180       0.06915020
 H       -0.54210       2.34750       4.70480       0.07210260
no frequencies
COC(=O)C(=C(C)C)CC/C(=C/CC/C(=C/CC/C(=C/CC/C(=C/CC/C(=C/CC/C(=C/CC/C(=C/CC/C(=C/CC/C(=C/CC/C(=C/CO)/C)/C)/C)/C)/C)/C)/C)/C)/C)/C
