45
s_21453.out 0.27558
 C       1.64020       0.16120       -0.12950       0.03559150
 O       0.30450       -0.18580       0.21810       -0.28206466
 C       -0.28560       0.61000       1.15730       0.35399008
 O       0.29040       1.54590       1.64830       -0.39434815
 C       -1.64690       0.14350       1.43520       -0.03735411
 C       -2.27940       -0.84540       0.66550       -0.02644622
 C       -3.57380       -1.27140       0.95450       -0.03721697
 C       -4.30000       -0.73380       2.02510       -0.02582253
 C       -3.70000       0.23800       2.80230       -0.01155485
 C       -4.08620       1.00830       3.96610       -0.01184023
 C       -5.20960       1.07480       4.77110       -0.02743570
 C       -5.18800       1.96240       5.85610       0.02260374
 C       -4.07750       2.78090       6.11280       -0.02785187
 C       -2.93830       2.73590       5.30700       -0.04474560
 C       -2.97410       1.84050       4.25660       0.12718819
 O       -1.92490       1.64120       3.35720       -0.21271230
 C       -2.37640       0.66860       2.49000       0.13939884
 C       -6.34400       2.02240       6.74770       -0.02789970
 C       -6.21220       1.72720       8.10610       0.21585196
 O       -4.97640       1.42020       8.53760       -0.25565665
 C       -4.83840       1.07220       9.91830       0.02660489
 N       -7.24580       1.73020       9.00800       -0.26543546
 C       -8.45590       2.04610       8.57660       0.05440673
 C       -8.72420       2.38410       7.22090       -0.01801026
 C       -10.01650       2.74170       6.75450       -0.01173081
 C       -10.19020       3.06310       5.43550       -0.04128624
 C       -9.05570       3.01890       4.56640       0.06887966
 N       -7.84480       2.68250       4.96500       -0.23150274
 C       -7.64350       2.36580       6.29260       0.09122851
 H       2.30010       0.00600       0.73070       0.06054379
 H       1.87090       -0.53520       -0.94300       0.06547034
 H       1.69200       1.20200       -0.46730       0.06309881
 H       -1.74120       -1.28680       -0.17780       0.06134254
 H       -4.03030       -2.04190       0.33620       0.04472437
 H       -5.31230       -1.07360       2.23900       0.04728087
 H       -6.08800       0.46590       4.57020       0.04763291
 H       -4.10730       3.46560       6.96080       0.04725430
 H       -2.07540       3.36670       5.49550       0.05954051
 H       -3.76260       0.86840       9.98760       0.07018537
 H       -5.13280       1.90870       10.55960       0.06317527
 H       -5.43110       0.18280       10.15400       0.06177775
 H       -9.26230       2.03810       9.32340       0.04525618
 H       -10.84980       2.75550       7.45810       0.03760200
 H       -11.15740       3.34690       5.03350       0.03751515
 H       -9.16460       3.27220       3.50180       0.04277081
no frequencies
COC(=O)c1cccc2c3cc(ccc3oc12)[C]1C(=N[CH]c2cccnc12)OC
