44
s_22323.out 0.28495
 C       1.67290       0.53640       0.30620       0.03400697
 O       0.54880       -0.07520       0.93200       -0.27824491
 C       -0.57050       0.69610       1.00990       0.35587172
 O       -0.61660       1.80640       0.54560       -0.40003621
 C       -1.63180       -0.04720       1.69210       -0.03599207
 C       -1.86270       -1.39020       1.50770       -0.01982801
 S       -3.18930       -1.92200       2.45340       0.05284554
 C       -3.46560       -0.34100       3.09670       0.00467759
 C       -2.53560       0.56230       2.62070       0.00136166
 C       -2.47470       1.94950       3.06760       0.01261487
 C       -2.59720       3.00410       2.16100       -0.02625885
 C       -2.61430       4.31690       2.62770       -0.02699920
 C       -2.49970       4.57740       3.99170       -0.02935932
 C       -2.35440       3.52490       4.89500       -0.02963920
 C       -2.34100       2.21210       4.43580       -0.03432864
 C       -4.51670       -0.04010       4.05130       0.11892511
 N       -4.52880       -0.71870       5.19360       -0.25370882
 C       -5.44450       -0.35400       6.15670       0.14432512
 N       -6.29820       0.65260       6.04800       -0.25037310
 C       -6.33650       1.35090       4.86100       0.10237770
 C       -7.25110       2.42690       4.69230       -0.01368344
 C       -7.33360       3.06920       3.48030       -0.01466873
 C       -6.50140       2.69030       2.40040       -0.02400188
 C       -5.58870       1.67660       2.55100       -0.02810175
 C       -5.47480       0.99960       3.78840       -0.01094440
 C       -8.14130       2.86500       5.80860       0.25342341
 C       -7.46740       3.32190       7.06090       -0.13644575
 O       -9.33730       2.88280       5.66430       -0.34854391
 H       1.97120       1.43360       0.86060       0.06387338
 H       2.44080       -0.24290       0.36470       0.07029835
 H       1.43670       0.79160       -0.73210       0.06410227
 H       -1.29280       -2.04520       0.86520       0.07005290
 H       -2.67160       2.80100       1.09110       0.05600656
 H       -2.71460       5.13790       1.92090       0.03821797
 H       -2.51800       5.60350       4.35340       0.03364059
 H       -2.25320       3.72800       5.95930       0.03254509
 H       -2.22810       1.38570       5.13750       0.02952112
 H       -5.42950       -0.94430       7.08750       0.05389839
 H       -8.05410       3.87990       3.33510       0.05634182
 H       -6.59660       3.21630       1.45020       0.04964544
 H       -4.93860       1.38000       1.72400       0.04418247
 H       -8.16360       3.84910       7.72730       0.06938539
 H       -7.07710       2.44940       7.61780       0.09165545
 H       -6.61380       3.98010       6.85900       0.05736128
no frequencies
COC(=O)c1csc(c1c1ccccc1)[C]1N=C[N]c2c(cccc12)C(=O)C
