19
h_8583.out 0.26368
 O       0.03570       3.93490       0.64640       -0.37091714
 C       -1.25810       4.19670       0.90830       0.13301212
 C       -1.86820       5.48570       0.73160       -0.08056141
 C       -3.19050       5.47710       1.06670       -0.01961690
 S       -3.70030       3.90840       1.59620       -0.03229186
 C       -2.10260       3.21210       1.37420       -0.00326077
 C       -1.86270       1.84740       1.66470       0.03513611
 S       -0.22470       1.08880       1.45990       -0.09626992
 C       -0.75520       -0.53760       2.00060       -0.01518400
 C       -2.04850       -0.46640       2.29640       -0.01410637
 C       -3.38640       -0.95280       2.73730       -0.02447157
 C       -3.95610       0.27540       2.56590       -0.01811229
 C       -2.67880       0.88500       2.10790       -0.02695707
 H       0.51620       4.74230       0.32930       0.30691114
 H       -1.32040       6.34140       0.37390       0.03813594
 H       -3.87330       6.30930       1.02540       0.05503315
 H       -0.06150       -1.35370       2.03920       0.04942117
 H       -3.69850       -1.91360       3.04920       0.04105061
 H       -4.91790       0.70080       2.68710       0.04304909
no frequencies
Oc1ccsc1c1scc2C=Cc12
