31
m_2262.out 0.33964
 C       -0.19250       -1.05410       0.90590       -0.09598358
 C       0.74760       0.08080       0.47110       0.01256506
 C       0.38800       1.36130       1.24170       -0.10197752
 C       2.17510       -0.26250       0.93070       0.23562065
 O       2.34390       -0.90410       1.93740       -0.34933434
 C       3.33640       0.20870       0.14400       -0.01428049
 C       4.45820       -0.62100       0.06300       0.00427377
 C       5.55590       -0.20770       -0.68670       -0.03299409
 C       5.49640       1.03670       -1.32680       0.06170958
 N       4.42760       1.85160       -1.23380       -0.21523486
 C       3.36910       1.44780       -0.51110       0.05695981
 C       0.64300       0.23790       -1.01720       -0.01864587
 C       1.23010       -0.66520       -1.91280       0.17727353
 F       1.92060       -1.69040       -1.44470       -0.21250802
 C       1.12250       -0.52430       -3.29380       -0.05889481
 C       0.37380       0.56120       -3.76370       0.05363423
 N       -0.22760       1.43510       -2.93620       -0.21781006
 C       -0.09750       1.27690       -1.60710       0.04574360
 H       0.09920       -2.01900       0.47560       0.04678248
 H       -1.22660       -0.85620       0.60580       0.03828021
 H       -0.17240       -1.18360       1.99780       0.06178476
 H       0.57350       1.23230       2.31950       0.05271295
 H       -0.67530       1.60770       1.13930       0.05100163
 H       0.97210       2.22750       0.91320       0.03899427
 H       4.46330       -1.58220       0.58550       0.06271439
 H       6.44000       -0.83320       -0.77330       0.04713168
 H       6.32580       1.41380       -1.93780       0.04983958
 H       2.52930       2.15260       -0.46800       0.04395090
 H       1.59700       -1.22070       -3.98070       0.06067487
 H       0.24040       0.74800       -4.83650       0.05616154
 H       -0.62210       2.02700       -0.99990       0.05985416
no frequencies
CC(C)(C(=O)c1cccnc1)c1c(F)ccnc1
