36
a_2056.out 0.24269
 C       1.37710       -0.03750       -0.34120       0.03932700
 O       0.07610       -0.27420       0.18200       -0.30568864
 C       -0.34540       0.60300       1.14880       0.34196888
 O       0.33410       1.53180       1.50390       -0.41831025
 C       -1.65520       0.21930       1.61850       -0.01614444
 N       -2.37290       -0.86370       1.12080       -0.05557717
 H       -2.03580       -1.45780       0.38900       0.18469520
 C       -3.56080       -0.98260       1.78120       -0.00864244
 C       -3.63570       0.05020       2.74960       -0.01323983
 C       -4.59830       0.38860       3.72870       0.01431288
 C       -4.34240       1.44880       4.56640       -0.02671382
 C       -3.14580       2.21000       4.44810       -0.02473175
 C       -2.19420       1.91060       3.50640       -0.02911616
 C       -2.42340       0.81550       2.64720       0.00478221
 C       -5.81380       -0.40640       3.83430       0.01369136
 C       -6.73380       -0.57580       2.81790       -0.03977937
 S       -8.03050       -1.62450       3.28600       0.02344033
 C       -7.37370       -1.86450       4.83250       0.01201536
 C       -6.18450       -1.13490       4.98650       -0.05753551
 C       -5.63070       -1.37430       6.35550       0.23676248
 O       -4.65200       -0.90620       6.85870       -0.33339562
 C       -6.60790       -2.33340       6.96250       -0.05216778
 C       -7.63220       -2.59800       6.04120       0.01253412
 S       -8.75960       -3.68400       6.70030       0.02955738
 C       -7.88240       -3.79720       8.19820       -0.03021614
 C       -6.74930       -3.01650       8.18670       -0.02931298
 H       2.12360       -0.14940       0.45290       0.05885793
 H       1.48430       -0.81530       -1.10490       0.06010922
 H       1.43360       0.96470       -0.77940       0.06064203
 H       -4.28020       -1.75250       1.57500       0.04473888
 H       -5.05240       1.71500       5.34850       0.04048702
 H       -2.99790       3.04080       5.13740       0.04046431
 H       -1.26970       2.47930       3.40560       0.05762376
 H       -6.68830       -0.11960       1.84520       0.05170773
 H       -8.22400       -4.41790       9.00580       0.05459787
 H       -6.04060       -2.92610       8.99990       0.05825595
no frequencies
COC(=O)c1[nH]cc2c(cccc12)c1csc2-c3c(C(=O)c12)ccs3
