31
s_24759.out 0.2575
 C       1.32630       -0.43180       0.01850       0.03778447
 O       0.04040       0.18140       -0.09680       -0.29052839
 C       -0.42560       0.67940       1.06930       0.10760931
 C       -0.76180       2.03630       1.22200       0.00645263
 C       -0.61890       3.10220       0.26630       -0.02873483
 C       -0.86330       4.39460       0.50580       -0.09888522
 N       -1.29960       2.17700       2.50660       -0.10243014
 C       -1.29940       0.95550       3.14130       -0.02079449
 C       -0.75620       -0.00750       2.27170       -0.04388051
 C       -0.57760       -1.38390       2.59530       0.01751913
 S       -1.34480       -2.68880       1.72350       -0.05031895
 C       -0.68300       -3.94280       2.72260       -0.05937971
 C       0.09360       -3.37210       3.69260       0.03541178
 N       0.93680       -3.79420       4.71560       -0.15088774
 C       1.42910       -2.63230       5.37710       -0.03792418
 C       1.00940       -1.49240       4.71830       0.04481649
 N       1.25350       -0.16140       5.06150       -0.29805765
 C       0.15050       -1.90610       3.62660       -0.04758091
 H       1.35760       -1.17120       0.82400       0.04349060
 H       1.44200       -0.91970       -0.95700       0.06066066
 H       2.08750       0.33900       0.16870       0.03467736
 H       -0.27680       2.76270       -0.72130       0.05102990
 H       -0.74620       5.15980       -0.24600       0.03140582
 H       -1.18760       4.79470       1.44950       0.02391824
 H       -1.66200       3.02830       2.87230       0.17146162
 H       -1.66710       0.81240       4.14200       0.04671665
 H       -0.87990       -4.97960       2.55280       0.03437125
 H       0.86390       -4.67800       5.16630       0.15047773
 H       2.06420       -2.73240       6.23180       0.02510298
 H       2.14700       0.02640       5.47720       0.14964603
 H       1.00950       0.50160       4.34320       0.15685005
no frequencies
COc1c(C=C)[nH]cc1c1scc2[nH]cc(N)c12
