38
f_11889.out 0.26272
 C       1.11500       0.57910       -0.73540       0.03399514
 O       0.61130       -0.08880       0.41580       -0.26745923
 C       0.10450       0.68960       1.40500       0.13643251
 C       -0.02960       2.05420       1.34260       -0.07700978
 C       -0.63350       2.72340       2.42660       -0.04269265
 C       -1.01170       2.04380       3.56210       -0.00736266
 C       -1.79280       2.80230       4.53420       -0.00223083
 C       -1.36490       3.91390       5.20650       -0.03396452
 S       -2.64250       4.57310       6.17800       -0.04123487
 C       -3.76300       3.33780       5.67980       -0.02202683
 C       -3.17120       2.47200       4.81190       -0.04992082
 C       -0.73710       0.64650       3.70130       -0.01491318
 C       -0.28480       -0.06730       2.56620       -0.01041450
 C       -0.21570       -1.48510       2.58520       -0.00256725
 C       -0.50310       -2.17500       3.74500       -0.03621557
 C       -0.82250       -1.48750       4.92050       -0.06884833
 C       -0.88910       -0.09460       4.92790       0.07659545
 N       -0.99370       0.53180       6.15910       -0.27248702
 C       0.11190       -2.25780       1.39130       0.01096499
 C       -0.75130       -2.49140       0.35850       -0.02175759
 S       -0.00620       -3.50660       -0.84080       -0.05328467
 C       1.48400       -3.60890       0.05920       -0.02092016
 C       1.39430       -2.89910       1.21690       -0.04531320
 H       1.92110       1.26910       -0.47160       0.04435168
 H       1.50880       -0.25560       -1.33150       0.06395651
 H       0.30860       1.08530       -1.27350       0.04528054
 H       0.28770       2.63060       0.48150       0.03196558
 H       -0.82200       3.79390       2.33680       0.02769216
 H       -0.38620       4.35680       5.16340       0.04385462
 H       -4.77700       3.31580       6.03500       0.04496662
 H       -3.64720       1.61980       4.34710       0.03690988
 H       -0.46630       -3.26510       3.75710       0.02778624
 H       -0.98960       -2.05030       5.83350       0.02521753
 H       -1.12500       1.51610       6.22960       0.16725125
 H       -1.29390       0.00020       6.94840       0.16170117
 H       -1.75360       -2.11780       0.25660       0.03807283
 H       2.32470       -4.17130       -0.29980       0.04056292
 H       2.17790       -2.79400       1.95220       0.03306606
no frequencies
COc1ccc(c2cscc2)c2c1c(ccc2N)c1cscc1
