28
h_3519.out 0.26386
 C       1.37780       -0.36440       -0.01880       0.03949525
 O       0.00510       0.03100       -0.05040       -0.30101173
 C       -0.40700       0.61070       1.10940       0.10532600
 C       -0.72300       2.03320       1.10390       0.04710177
 N       -0.40960       2.83180       0.01160       -0.27763932
 C       -1.25060       2.45010       2.29880       -0.06270794
 S       -1.34470       1.14030       3.43590       -0.05713977
 C       -0.67630       -0.01790       2.29340       0.00017306
 C       -0.49830       -1.38330       2.63990       -0.00732530
 S       -1.23720       -2.68150       1.72490       -0.02550785
 C       -0.58280       -3.90460       2.76210       -0.04172410
 C       0.16890       -3.35450       3.76050       0.01075116
 S       0.99910       -4.25440       5.00270       -0.14623329
 C       1.96980       -2.90510       5.78140       -0.01254196
 C       1.17380       -1.61410       5.81130       0.08523754
 O       0.93280       -1.10940       4.49730       -0.27933269
 C       0.21310       -1.91840       3.68820       0.11935858
 H       1.56480       -1.07510       0.79130       0.03807486
 H       1.50820       -0.84450       -0.99540       0.06193614
 H       2.02040       0.51520       0.08270       0.04105560
 H       -0.25710       2.34840       -0.85560       0.17541311
 H       -0.89890       3.69940       -0.07750       0.15809870
 H       -1.56310       3.44150       2.55780       0.04663331
 H       -0.77190       -4.95140       2.58710       0.05977523
 H       2.24360       -3.23450       6.80100       0.05767850
 H       2.91690       -2.76620       5.22420       0.05853110
 H       0.20970       -1.70210       6.34670       0.04591239
 H       1.75330       -0.77330       6.24840       0.06061166
no frequencies
COc1c(N)csc1c1scc2SCCOc12
