35
s_30089.out 0.26448
 C       0.83050       -1.02650       0.14780       0.03124224
 O       0.39650       0.32490       0.02260       -0.26762274
 C       -0.12430       0.87470       1.13950       0.12586971
 C       -0.36330       0.31340       2.35990       -0.06803646
 S       -1.01710       1.50190       3.44000       -0.04831959
 C       -0.96720       2.76140       2.21720       0.01656087
 C       -1.34460       4.09940       2.54310       0.03384425
 C       -0.55350       5.20210       2.53300       -0.05406861
 C       -1.24540       6.41430       2.90790       -0.00426172
 C       -0.70010       7.69760       2.98810       -0.04374834
 C       -1.54500       8.72410       3.36340       0.02909240
 S       -1.12920       10.42670       3.55440       -0.11229163
 C       -2.81760       10.82790       4.02350       0.10297333
 N       -3.15510       12.10150       4.38350       -0.25776755
 C       -3.61640       9.71860       4.02200       -0.09833448
 C       -2.91990       8.51220       3.65830       0.00339708
 C       -3.46090       7.22920       3.57920       -0.04986492
 C       -2.61290       6.19750       3.20700       0.03125745
 S       -3.00830       4.49290       3.02750       -0.08151090
 C       -0.48140       2.27930       1.02820       -0.02031746
 C       -0.30770       2.99000       -0.22370       -0.01997820
 C       -1.10320       3.98000       -0.63790       -0.08535073
 H       -0.02810       -1.68950       0.29340       0.04580514
 H       1.30580       -1.21070       -0.82470       0.06601222
 H       1.55880       -1.13620       0.95760       0.04483571
 H       -0.19530       -0.69890       2.66570       0.04612897
 H       0.49630       5.20830       2.27220       0.03823438
 H       0.35150       7.86200       2.75980       0.04028390
 H       -4.11690       12.32650       4.54130       0.17533431
 H       -2.54820       12.87070       4.19710       0.17780731
 H       -4.66340       9.70560       4.26630       0.03362521
 H       -4.51110       7.06270       3.80530       0.04027104
 H       0.52630       2.63520       -0.83850       0.05199110
 H       -0.96950       4.49400       -1.57720       0.03747796
 H       -1.94850       4.34850       -0.07530       0.03942875
no frequencies
COc1csc(c2cc3cc4sc(N)cc4cc3s2)c1C=C
