71
m_20677.out 0.29488
 C       1.67160       1.95980       2.26460       -0.04504846
 S       1.06120       1.09490       0.78170       -0.19209627
 C       -0.17880       2.22010       0.16790       0.04421009
 C       -0.07310       2.89160       -1.05790       0.00639249
 C       -1.09920       3.78530       -1.39400       -0.04051439
 C       -2.20820       3.96950       -0.57460       -0.03316250
 C       -2.31750       3.26240       0.61890       -0.03458356
 C       -1.29540       2.39430       0.98730       -0.03367980
 C       1.09780       2.69340       -2.00890       -0.00539515
 C       1.07960       1.21980       -2.50920       -0.05034339
 C       2.04850       0.96010       -3.68290       0.00513867
 N       1.83950       -0.43800       -4.14420       -0.18958464
 C       2.56800       -1.39460       -3.27560       0.00810901
 C       2.14500       -2.81990       -3.65130       -0.06697094
 C       2.44030       -3.13060       -5.12950       0.14302864
 O       1.68710       -4.29010       -5.48590       -0.45465092
 C       1.97640       -2.00040       -6.06750       -0.06691493
 C       2.28110       -0.58490       -5.55180       0.01272102
 C       3.87870       -3.55720       -5.32760       0.00856020
 C       4.18160       -4.92160       -5.39140       -0.02720377
 C       5.49870       -5.34710       -5.54980       -0.04179860
 C       6.49500       -4.38450       -5.63510       0.09803269
 Cl       8.12080       -4.89790       -5.82320       -0.18679760
 C       6.22940       -3.02420       -5.57520       -0.04210920
 C       4.90520       -2.61600       -5.42200       -0.03911556
 C       2.43630       2.94090       -1.27990       0.27202545
 O       3.39760       2.22060       -1.47700       -0.43262705
 N       2.58160       3.99350       -0.39540       -0.10879184
 C       3.90370       4.20570       0.20420       -0.03542716
 C       1.63910       5.09840       -0.24530       -0.03946364
 C       1.02910       3.58240       -3.23910       0.01337599
 C       -0.01040       3.38550       -4.16050       -0.03196075
 C       -0.10040       4.16420       -5.30820       -0.03121990
 C       0.85690       5.14580       -5.56380       -0.03209977
 C       1.90710       5.32870       -4.67030       -0.03046729
 C       1.99600       4.54860       -3.51700       -0.03780447
 H       2.49740       1.36780       2.67970       0.05831830
 H       0.90060       2.06480       3.03190       0.04358943
 H       2.05990       2.95500       2.01940       0.04568687
 H       -1.04720       4.37830       -2.30870       0.03924683
 H       -2.98960       4.66840       -0.86990       0.03535870
 H       -3.18970       3.38720       1.25620       0.03648281
 H       -1.38600       1.84820       1.92880       0.04268767
 H       1.34740       0.52970       -1.68580       0.06175958
 H       0.05150       0.93970       -2.81110       0.03977202
 H       1.83250       1.65420       -4.52140       0.02475989
 H       3.09730       1.15730       -3.36700       0.04433023
 H       2.29000       -1.19220       -2.21560       0.04358743
 H       3.67200       -1.28440       -3.33540       0.01757994
 H       2.64790       -3.55620       -2.99860       0.03899356
 H       1.05860       -2.93620       -3.46360       0.04333944
 H       0.73340       -4.14670       -5.34770       0.28183478
 H       2.42370       -2.14150       -7.06920       0.03899259
 H       0.88020       -2.09480       -6.21200       0.04115732
 H       3.35770       -0.34290       -5.69180       0.01045105
 H       1.71090       0.14840       -6.16700       0.02941703
 H       3.38060       -5.66340       -5.32060       0.07114812
 H       5.72960       -6.40990       -5.60520       0.05380160
 H       7.02860       -2.28740       -5.64580       0.05222223
 H       4.68170       -1.54940       -5.37510       0.04949565
 H       4.50870       4.90720       -0.39450       0.04170261
 H       3.80250       4.59630       1.22850       0.04143707
 H       4.45960       3.24670       0.25700       0.08099337
 H       2.15500       6.02920       0.04560       0.05344375
 H       0.89250       4.86160       0.53610       0.03947416
 H       1.09540       5.30810       -1.18400       0.05212671
 H       -0.75320       2.60640       -3.97970       0.03970529
 H       -0.91660       4.00400       -6.00980       0.03162509
 H       0.78610       5.75830       -6.45910       0.03134706
 H       2.66970       6.07900       -4.87060       0.03127523
 H       2.84760       4.70420       -2.85420       0.03109390
no frequencies
CSc1c(cccc1)[C@](CCN1CC[C@@](O)(CC1)c1ccc(Cl)cc1)(C(=O)N(C)C)c1ccccc1
