33
m_2607.out 0.31891
 C       1.24390       2.96480       4.34940       -0.10482449
 C       2.25920       1.87280       3.98680       -0.00285154
 C       3.65740       2.23190       4.50340       -0.10628638
 C       2.25850       1.67340       2.49600       -0.02213146
 C       2.89840       2.57370       1.65180       -0.03344674
 C       2.86070       2.37560       0.26920       -0.01160672
 C       2.18020       1.29050       -0.29640       -0.03315500
 C       1.52990       0.37910       0.52400       0.00187450
 C       0.77990       -0.79240       -0.04680       -0.00952729
 C       1.71930       -1.66800       -0.88570       -0.10447787
 C       -0.40030       -0.29500       -0.89200       -0.10358376
 C       1.58170       0.58770       1.91570       0.14090565
 O       0.92270       -0.33310       2.65530       -0.37625925
 N       3.54470       3.31280       -0.59780       0.53303197
 O       4.14340       4.24550       -0.08340       -0.39813227
 O       3.49870       3.12910       -1.80450       -0.39556644
 H       1.18650       3.11350       5.43300       0.04219332
 H       1.51410       3.92910       3.90090       0.04605704
 H       0.23820       2.71410       3.99310       0.03485076
 H       1.95130       0.92090       4.50000       0.02217123
 H       4.40830       1.51400       4.15200       0.03885946
 H       3.97570       3.22800       4.17320       0.04767898
 H       3.68700       2.23390       5.59880       0.04047049
 H       3.43230       3.43790       2.06440       0.07892255
 H       2.16200       1.16610       -1.38550       0.08055448
 H       0.36910       -1.42310       0.78600       0.05604363
 H       1.19810       -2.55700       -1.25740       0.04076372
 H       2.11300       -1.13100       -1.75570       0.04174361
 H       2.57530       -2.01040       -0.29280       0.03459493
 H       -1.01580       -1.13320       -1.23650       0.04077557
 H       -0.06590       0.25350       -1.77920       0.04153091
 H       -1.04680       0.37460       -0.31300       0.03443736
 H       0.98860       -0.15550       3.63380       0.30438903
no frequencies
CC(C)c1cc(cc(C(C)C)c1O)N(=O)=O
