47
s_33679.out 0.2664
 C       1.20770       -0.28750       1.40330       -0.05143641
 S       0.81580       0.25450       -0.28610       -0.12620988
 C       -0.02000       1.79960       -0.10440       0.05409596
 C       -0.49250       2.37110       -1.30450       -0.04105416
 C       -1.15830       3.57310       -1.22880       0.00639938
 C       -1.76700       4.39360       -2.28630       0.00658175
 C       -1.84270       4.19990       -3.64920       -0.02799698
 C       -2.50410       5.17130       -4.42080       -0.02243467
 C       -3.07040       6.29460       -3.83220       -0.02732430
 C       -2.99350       6.49460       -2.44260       -0.01341041
 C       -2.34480       5.54470       -1.68900       -0.02409652
 C       -2.11240       5.49470       -0.21120       0.23223880
 O       -2.44020       6.31230       0.60000       -0.35527349
 C       -1.36800       4.21960       0.02080       -0.04086957
 C       -0.91800       3.64840       1.18970       0.02899885
 C       -0.22310       2.42310       1.11700       -0.05124481
 C       -1.16840       4.25940       2.49820       0.02100619
 C       -0.40650       5.36820       2.91650       -0.01649978
 C       -0.61740       5.95330       4.15600       -0.02509905
 C       -1.60510       5.45830       5.02580       -0.01287527
 C       -2.35410       4.38280       4.61050       -0.02396427
 C       -2.14930       3.77460       3.34230       0.00379459
 C       -3.11730       2.67920       3.18590       0.00244544
 C       -3.35160       1.80740       2.14220       -0.03047684
 C       -4.37180       0.85300       2.27800       -0.03272504
 C       -5.13460       0.78600       3.43960       0.05929107
 S       -6.39620       -0.45200       3.51740       -0.22213715
 C       -4.90940       1.67380       4.50620       -0.02644585
 C       -3.90820       2.60460       4.36280       -0.02462194
 C       -3.46290       3.67230       5.31470       0.23429433
 O       -3.90640       3.89950       6.40440       -0.34338233
 H       1.71910       -1.25740       1.33310       0.06425639
 H       0.30850       -0.43060       2.01500       0.05523355
 H       1.87990       0.40530       1.92240       0.05497128
 H       -0.34330       1.88290       -2.26690       0.04958392
 H       -1.40800       3.32350       -4.12210       0.04024690
 H       -2.57040       5.03360       -5.49970       0.04072793
 H       -3.58270       7.03180       -4.44820       0.04132092
 H       -3.43600       7.37600       -1.97780       0.05304572
 H       0.13690       1.98990       2.05030       0.03891038
 H       0.35000       5.77100       2.24190       0.04237500
 H       -0.01980       6.81060       4.46080       0.04449790
 H       -1.77480       5.91870       5.99910       0.05505730
 H       -2.76840       1.85250       1.22260       0.03852514
 H       -4.55260       0.16900       1.44530       0.04847768
 H       -6.90510       -0.20470       4.73300       0.16954520
 H       -5.49810       1.64570       5.42380       0.05365712
no frequencies
CSc1cc2-c3ccccc3C(=O)c2c(c1)c1cccc2c1-c1ccc(S)cc1C2=O
