33
s_42970.out 0.25541
 N       5.57560       1.76940       -2.68920       -0.27052767
 C       4.95020       1.60200       -1.46210       0.08113299
 C       3.91710       0.65360       -1.32100       -0.06125499
 C       3.32860       0.46860       -0.08090       -0.03823396
 C       3.73820       1.21340       1.03180       -0.00846539
 C       3.05450       1.01560       2.29870       -0.03614550
 C       3.59920       0.54990       3.46130       -0.02980667
 S       2.41780       0.49880       4.73330       -0.04376792
 C       1.15110       1.09770       3.70850       -0.05386792
 C       1.64510       1.31770       2.45450       0.13017845
 O       0.85340       1.76930       1.46110       -0.39090857
 C       4.78310       2.14190       0.89300       0.00412691
 C       5.38330       2.34410       -0.34730       -0.06366642
 C       5.23930       2.90870       2.03500       0.00906369
 S       6.85510       2.72280       2.68270       0.00235696
 C       6.60270       3.85460       3.96220       -0.03231707
 C       5.33370       4.35860       3.89530       -0.00852221
 C       4.57690       5.29690       4.68730       -0.03447162
 C       3.31370       5.47300       4.22350       0.04033068
 S       2.95880       4.51270       2.76270       -0.04893464
 C       4.56290       3.81990       2.78840       0.01391363
 C       2.30810       6.29190       4.75960       0.11147625
 N       1.47470       6.96480       5.20130       -0.21962946
 H       6.17200       2.55500       -2.83310       0.16459942
 H       5.16250       1.37980       -3.50810       0.16494879
 H       3.59180       0.06780       -2.17500       0.03336368
 H       2.53430       -0.27270       0.03830       0.03843618
 H       4.61770       0.24270       3.61600       0.04513206
 H       0.14660       1.26730       4.04540       0.05987251
 H       1.38460       1.98700       0.64960       0.30226520
 H       6.17830       3.07640       -0.45950       0.03271743
 H       7.36120       4.09660       4.68580       0.05624798
 H       5.00610       5.78510       5.55300       0.05035719
no frequencies
Nc1ccc(c2cscc2O)c(c1)c1scc2cc(sc12)C#N
