33
s_11490.out 0.2614
 C       1.51820       -0.07850       -0.25830       -0.03195316
 N       0.09600       -0.14720       0.09460       -0.19621371
 C       -0.34790       0.54030       1.22930       0.06085998
 C       0.40580       1.53470       1.82370       -0.07273435
 C       -0.14190       2.25780       2.90250       -0.01253075
 C       0.35090       3.30810       3.69470       -0.03905850
 N       -0.62730       3.63120       4.62490       -0.07157975
 C       -1.73120       2.82900       4.45830       -0.02849478
 C       -1.46730       1.95260       3.38670       -0.02087159
 C       -2.22030       0.93310       2.77250       -0.03567411
 C       -1.68250       0.23480       1.71920       -0.01697521
 C       -2.46790       -0.79880       1.08270       0.02158469
 C       -2.91300       -0.83990       -0.21120       -0.07474448
 C       -3.65880       -2.02670       -0.43420       0.10480667
 O       -4.28650       -2.51220       -1.54080       -0.22919910
 C       -4.84220       -3.73080       -1.13560       0.01878143
 C       -4.56900       -3.99860       0.19410       0.05113476
 N       -5.03650       -5.05780       0.96200       -0.28511414
 C       -3.78640       -2.89020       0.66240       -0.02534008
 S       -2.97570       -2.22790       2.02310       -0.07878872
 H       1.70930       -0.72100       -1.13400       0.03995233
 H       1.77870       0.95670       -0.54770       0.04778715
 H       2.18790       -0.39030       0.56070       0.03189168
 H       -0.32330       -1.05430       -0.07710       0.14833954
 H       1.40210       1.78620       1.48510       0.02554614
 H       1.28850       3.81460       3.64270       0.02707244
 H       -0.53750       4.34740       5.30980       0.15783869
 H       -2.60860       2.90410       5.06620       0.02946527
 H       -3.22510       0.72400       3.14160       0.02719271
 H       -2.73480       -0.08260       -0.96090       0.05293917
 H       -5.38060       -4.21890       -1.90560       0.04921663
 H       -4.53280       -5.25020       1.80740       0.16737800
 H       -5.30900       -5.88460       0.46490       0.15748512
no frequencies
CNc1cc2c[nH]cc2cc1c1cc2occ(N)c2s1
