25
c_219.out 0.25585
 H       -1.10500       -6.40350       -0.53480       0.04554607
 C       -1.54450       -5.45770       -0.25720       -0.08218789
 H       -0.82450       -4.65270       -0.18410       0.04173313
 C       -2.84610       -5.28590       -0.02510       0.02214615
 C       -3.91120       -6.32120       -0.09960       -0.03905772
 H       -3.68240       -7.33930       -0.35210       0.03668349
 C       -5.12470       -5.78920       0.18400       -0.03158099
 H       -6.07650       -6.28540       0.20730       0.03415571
 C       -4.96910       -4.36600       0.47230       -0.00805467
 C       -5.74040       -3.30550       0.80210       -0.02130392
 H       -6.80380       -3.27170       0.95100       0.04900998
 S       -4.73710       -1.88080       0.97390       -0.04703839
 C       -3.24220       -2.74700       0.58070       0.02406631
 C       -1.98050       -2.08990       0.56070       0.01543388
 S       -1.64250       -0.75320       -0.52180       -0.01335620
 C       -0.00130       -0.57860       0.04290       -0.02993119
 H       0.65830       0.17170       -0.35180       0.05640039
 C       0.25380       -1.50170       0.99910       0.01007498
 Se       1.74890       -1.97030       2.07810       -0.07815589
 C       0.63290       -3.33330       2.84660       -0.01880462
 H       1.05730       -3.95260       3.60480       0.05584358
 C       -0.60440       -3.35880       2.33240       -0.03398946
 H       -1.39510       -4.04300       2.62450       0.04345853
 C       -0.86370       -2.36960       1.30450       -0.00974936
 C       -3.53850       -4.05030       0.34640       -0.02134192
no frequencies
[CH2]C1=CC=C2[CH]SC(=C12)c1scc2[se]ccc12
