30
f_10381.out 0.26831
 F       3.12860       5.86500       -3.69890       -0.18272783
 C       3.10260       4.69420       -3.07670       0.46451258
 F       4.08450       4.74770       -2.18160       -0.20260159
 F       3.48860       3.80260       -3.98450       -0.20261658
 C       1.70380       4.38390       -2.44970       0.20580735
 O       0.86700       5.22920       -2.60600       -0.30984436
 C       1.53770       3.12610       -1.74480       -0.02765587
 C       2.49630       2.17100       -1.55770       -0.01107748
 S       1.91820       0.80410       -0.65850       0.08536452
 C       0.32190       1.50370       -0.50450       0.03488992
 C       0.26020       2.77050       -1.14650       0.00809541
 C       -0.93190       3.49730       -1.14020       -0.02450057
 C       -2.06630       2.98700       -0.50520       -0.02970378
 C       -1.99340       1.74960       0.12120       0.01138622
 C       -0.79300       1.00220       0.12190       -0.03214289
 C       -1.01220       -0.27690       0.86770       0.23414881
 O       -0.21280       -1.14810       1.06080       -0.33719404
 C       -2.43690       -0.22500       1.31150       -0.02330903
 C       -3.16240       -1.13980       2.03670       -0.01104563
 C       -4.50710       -0.83850       2.32060       -0.02559579
 C       -5.07730       0.34730       1.87910       -0.02014146
 C       -4.33400       1.28300       1.13660       -0.02579264
 C       -3.01640       0.99110       0.85760       0.00781897
 H       3.52350       2.18720       -1.89840       0.08131584
 H       -0.98240       4.47290       -1.63380       0.08411869
 H       -2.99580       3.55450       -0.50150       0.05398690
 H       -2.71230       -2.07090       2.38140       0.05798253
 H       -5.10070       -1.54950       2.89330       0.04640161
 H       -6.12100       0.56470       2.10790       0.04570809
 H       -4.79540       2.20650       0.79650       0.04441209
no frequencies
FC(F)(F)C(=O)c1csc2c1ccc1-c3c(C(=O)c21)cccc3
