43
m_30013.out 0.41244
 C       0.57070       0.32900       2.38290       -0.04911068
 C       0.39750       -0.61960       1.19140       -0.05681472
 C       -0.60940       -0.03500       0.18270       0.01301841
 N       -0.12080       1.29080       -0.27780       -0.17225374
 C       -0.96480       1.77550       -1.39290       0.01185376
 C       -0.61370       3.21270       -1.83410       -0.01754561
 C       -0.73500       4.14380       -0.62230       -0.04935342
 C       0.30200       3.67880       0.40650       -0.01759520
 C       1.71170       3.84150       -0.20210       0.01180284
 N       1.88000       3.11350       -1.47990       -0.17232452
 C       3.20200       3.44290       -2.07440       0.01291900
 C       3.45460       2.51900       -3.28090       -0.05682847
 C       2.34340       2.68960       -4.32270       -0.04912166
 C       0.98810       2.42990       -3.65500       -0.06150670
 C       0.79740       3.38720       -2.45620       0.04821570
 C       -0.05970       2.23930       0.86110       0.04818893
 C       0.98950       1.70910       1.86470       -0.06158893
 H       -0.36800       0.40140       2.96030       0.02701895
 H       1.33360       -0.06420       3.07860       0.02625933
 H       0.06210       -1.61540       1.52430       0.02726109
 H       1.37290       -0.76090       0.68300       0.04346681
 H       -0.67200       -0.70380       -0.70280       0.02618431
 H       -1.62210       0.01020       0.63570       0.00464574
 H       -2.05070       1.73880       -1.14810       0.00280892
 H       -0.79550       1.07730       -2.24410       0.03295690
 H       -1.35580       3.51260       -2.61340       0.02040532
 H       -0.55810       5.19440       -0.91170       0.02410624
 H       -1.75440       4.11020       -0.19990       0.02409982
 H       0.25350       4.33120       1.31190       0.02046774
 H       1.92720       4.92930       -0.30470       0.00288088
 H       2.46710       3.42260       0.50150       0.03298846
 H       3.97950       3.25950       -1.30190       0.02626333
 H       3.28420       4.50620       -2.38320       0.00479686
 H       4.44270       2.73260       -3.71990       0.02729129
 H       3.47740       1.46730       -2.92990       0.04347481
 H       2.37350       3.70470       -4.75670       0.02701896
 H       2.49510       1.98890       -5.16340       0.02620228
 H       0.95300       1.38330       -3.28700       0.04937522
 H       0.16410       2.55100       -4.37500       0.02465530
 H       0.85920       4.44530       -2.83320       -0.00036425
 H       -1.05460       2.29900       1.38270       -0.00033463
 H       1.96790       1.62490       1.34740       0.04948738
 H       1.11740       2.42090       2.69510       0.02462793
no frequencies
C1CC[N@]2C[C@H]3C[C@H](C[N@@]4CCCC[C@@H]34)[C@@H]2C1
