96
P_C58401200.out 0.23303
 C       -3.89090       -4.83500       -3.99260       -0.09895473
 C       -2.92140       -4.49230       -2.86130       -0.04962755
 C       -1.74690       -3.65440       -3.38410       -0.05442713
 C       -0.78440       -3.30100       -2.24360       -0.06059380
 C       0.39740       -2.44490       -2.73980       -0.01964501
 C       1.54040       -2.46910       -1.70500       -0.05583795
 C       2.35890       -3.75700       -1.79470       -0.09780116
 C       -0.07270       -0.99890       -2.97940       -0.05423701
 C       0.92640       -0.21420       -3.84630       -0.05307935
 C       0.35980       1.13620       -4.14310       -0.00249893
 C       -0.47870       1.33170       -5.24510       -0.01006612
 C       -0.88150       0.33390       -6.21670       -0.06278152
 C       -1.71130       0.80040       -7.17810       0.03984261
 C       -2.30020       0.05920       -8.30360       -0.10089952
 S       -2.05890       2.52470       -6.94480       -0.09157978
 C       -1.04780       2.60360       -5.50340       0.01885853
 C       -0.81600       3.70480       -4.69070       -0.00118053
 C       -1.45550       5.03210       -4.94030       -0.05303117
 C       -2.81670       5.07670       -4.22590       -0.05366545
 C       -3.50030       6.44760       -4.37650       -0.01983412
 C       -4.02780       6.62860       -5.81420       -0.05571709
 C       -4.26600       8.10130       -6.14760       -0.09784190
 C       -4.66400       6.55930       -3.37200       -0.06111560
 C       -4.16710       6.82640       -1.94530       -0.04752259
 C       -5.34490       6.97390       -0.98170       -0.09910310
 C       0.02150       3.50860       -3.58570       -0.01176433
 C       0.38910       4.49540       -2.59310       -0.05147491
 C       1.21190       4.01890       -1.62450       0.02581218
 S       1.58350       2.30610       -1.87680       -0.07050026
 C       0.59600       2.23900       -3.33070       0.01968372
 C       1.76290       4.71020       -0.50590       0.02687041
 C       1.76780       4.33780       0.81150       -0.04037760
 C       2.40640       5.29360       1.66620       -0.03377933
 C       2.90640       6.38550       0.99430       0.02128639
 S       2.57250       6.24760       -0.70890       -0.00262047
 C       3.58650       7.48380       1.57940       0.01807659
 S       4.75970       8.46390       0.73390       -0.01065184
 C       5.04660       9.47360       2.13590       0.03638675
 C       6.00540       10.58780       2.11420       -0.10576154
 C       4.27140       9.06180       3.18090       -0.04904505
 C       3.44940       7.92750       2.87150       -0.03431171
 C       2.56890       7.40540       3.92640       0.27188823
 O       2.09940       8.13520       4.77440       -0.39677978
 N       2.34870       6.02170       4.05790       -0.11410318
 C       1.86130       5.61390       5.39440       -0.03516853
 C       2.47210       4.99350       3.10400       0.27403781
 O       2.53600       3.84870       3.50010       -0.39606304
 H       -3.39290       -5.39830       -4.78900       0.03168656
 H       -4.31670       -3.93090       -4.44240       0.03124169
 H       -4.72470       -5.44530       -3.62960       0.03074174
 H       -2.54530       -5.42040       -2.39160       0.02718465
 H       -3.45310       -3.94210       -2.06200       0.02750827
 H       -1.21020       -4.20880       -4.17550       0.02737450
 H       -2.12820       -2.73390       -3.86530       0.02761582
 H       -0.40390       -4.23140       -1.78190       0.03285488
 H       -1.32430       -2.76860       -1.43900       0.02839113
 H       0.77140       -2.87050       -3.70010       0.02911229
 H       2.20940       -1.60020       -1.85930       0.03262247
 H       1.12950       -2.34620       -0.68580       0.03034800
 H       1.73920       -4.64430       -1.62490       0.03182545
 H       2.82510       -3.86720       -2.78020       0.03071021
 H       3.16100       -3.76900       -1.04830       0.03171773
 H       -1.06270       -0.99970       -3.47740       0.03405042
 H       -0.23320       -0.48380       -2.01400       0.03251530
 H       1.91270       -0.15140       -3.34480       0.03938302
 H       1.13370       -0.76920       -4.78480       0.03748325
 H       -0.53180       -0.68580       -6.14260       0.04009578
 H       -3.40310       0.07460       -8.28580       0.05392926
 H       -2.00150       -1.00220       -8.29920       0.04731204
 H       -1.99050       0.46610       -9.28090       0.05394774
 H       -0.80970       5.85960       -4.58130       0.03638402
 H       -1.57640       5.23250       -6.02410       0.04057222
 H       -2.67140       4.84400       -3.15210       0.03220762
 H       -3.47800       4.27810       -4.61100       0.03334489
 H       -2.75770       7.25070       -4.16140       0.02905310
 H       -3.30720       6.20220       -6.53890       0.03248753
 H       -4.95930       6.04890       -5.95100       0.02968544
 H       -4.64480       8.22050       -7.16840       0.03099322
 H       -3.34090       8.68330       -6.06910       0.03120907
 H       -4.99810       8.55690       -5.47160       0.03209968
 H       -5.34730       7.37290       -3.67980       0.03455955
 H       -5.27180       5.63620       -3.39550       0.02929345
 H       -3.54500       7.74060       -1.92510       0.02646826
 H       -3.50830       6.00310       -1.60850       0.02491084
 H       -4.99880       7.12570       0.04690       0.03067456
 H       -5.97620       7.82850       -1.24750       0.03208634
 H       -5.98050       6.08140       -0.98600       0.03234760
 H       0.00650       5.50610       -2.64350       0.04455738
 H       1.34110       3.42040       1.20680       0.06886355
 H       5.77170       11.33500       1.33790       0.06133361
 H       6.01990       11.13450       3.07340       0.05757024
 H       7.04080       10.25000       1.93720       0.06065593
 H       4.24450       9.52420       4.16130       0.06440020
 H       2.45370       6.10720       6.18560       0.06696154
 H       1.94350       4.52100       5.53370       0.08364859
 H       0.80530       5.91370       5.51740       0.06467881
no frequencies
CCCC[C@H](CC)CCc1c2cc(C)sc2c(CC[C@@H](CC)CCC)c2cc(sc12)c1cc2c(s1)c1sc(C)cc1c(=O)n(C)c2=O
