54
m_22293.out 0.29135
 F       -5.79450       -3.48940       -1.56510       -0.19779777
 C       -4.72580       -4.11800       -1.10180       0.17970091
 C       -4.58750       -5.48040       -1.37240       -0.04368816
 C       -3.45560       -6.12470       -0.88220       -0.01762485
 C       -2.49290       -5.42100       -0.15290       -0.00247845
 C       -2.67250       -4.06480       0.11710       -0.02786314
 C       -3.79450       -3.39340       -0.36000       -0.04232671
 C       -1.29780       -6.15190       0.37250       0.23486177
 O       -1.46170       -7.14930       1.02850       -0.33479602
 C       0.09450       -5.65490       0.03870       -0.03424766
 C       0.52170       -4.63540       1.10450       -0.06055142
 C       1.87290       -4.00710       0.72070       0.00303555
 N       1.88470       -3.38370       -0.62020       -0.18146080
 C       0.97260       -2.22390       -0.75700       0.00962523
 C       1.30770       -1.11210       0.26370       0.00383526
 N       0.20200       -0.13070       0.28140       -0.11507764
 C       0.37690       1.06190       -0.43140       0.32326333
 O       1.40750       1.36260       -0.99040       -0.42248010
 N       -0.72060       1.94670       -0.47740       -0.16755225
 C       -1.93990       1.66950       0.13220       0.07682895
 C       -3.00940       2.58210       0.04060       -0.04918948
 C       -4.21050       2.27400       0.65810       -0.01700174
 C       -4.37200       1.07510       1.36760       -0.03351227
 C       -3.32130       0.17720       1.45950       -0.01675749
 C       -2.09880       0.46510       0.83870       -0.03622680
 C       -0.99970       -0.49450       0.92690       0.27277780
 O       -1.05910       -1.56430       1.49410       -0.42007960
 C       1.53660       -4.41400       -1.62790       0.00277843
 C       0.16930       -5.08500       -1.38300       -0.06160971
 C       -3.26900       -7.60570       -1.10380       0.49410447
 F       -4.03190       -8.13000       -2.06340       -0.20736608
 F       -2.02890       -7.93800       -1.46500       -0.20620695
 F       -3.52950       -8.33940       -0.02630       -0.18831049
 H       -5.35450       -6.00760       -1.94330       0.08654230
 H       -1.93410       -3.51820       0.71810       0.09252493
 H       -3.93680       -2.33240       -0.15290       0.07335189
 H       0.79240       -6.53470       0.10040       0.06344878
 H       0.59820       -5.12670       2.09300       0.04206361
 H       -0.23420       -3.83360       1.22910       0.05691471
 H       2.67340       -4.78220       0.72720       0.04302394
 H       2.17940       -3.25480       1.47750       0.04038509
 H       1.10690       -1.82000       -1.78740       0.04157817
 H       -0.09890       -2.50750       -0.65540       0.02625895
 H       1.42300       -1.52370       1.29380       0.07288315
 H       2.26740       -0.61110       -0.00210       0.08158000
 H       -0.58920       2.81930       -0.98580       0.20335646
 H       -2.89220       3.51340       -0.50710       0.04700176
 H       -5.04640       2.97410       0.59370       0.05118251
 H       -5.32450       0.85640       1.84590       0.05076661
 H       -3.42760       -0.76040       2.01610       0.06601242
 H       2.34700       -5.17640       -1.61700       0.04415218
 H       1.56230       -3.95130       -2.63710       0.03703536
 H       0.01350       -5.89060       -2.12530       0.03726373
 H       -0.64110       -4.35410       -1.56090       0.02606736
no frequencies
Fc1cc(c(cc1)C(=O)C1CCN(CCn2c(=O)[nH]c3ccccc3c2=O)CC1)C(F)(F)F
