36
s_1537.out 0.27466
 C       -5.44160       -0.51270       -1.61330       -0.12975150
 C       -4.17120       -0.03650       -2.23660       0.23769730
 O       -4.12850       0.53350       -3.29950       -0.35626243
 C       -2.93320       -0.29500       -1.48340       0.10045234
 C       -1.62220       -0.03360       -1.74150       -0.03571613
 C       -0.87680       -0.52230       -0.60570       -0.01597052
 C       0.38240       -0.62960       -0.09190       0.01035173
 S       0.30820       -1.43550       1.46320       0.01362866
 C       -1.42530       -1.61000       1.44990       -0.05345129
 C       -1.88680       -1.07880       0.29180       0.12135555
 O       -3.14240       -0.93760       -0.24620       -0.23527183
 C       1.63300       -0.18550       -0.68140       0.10876029
 C       2.51160       0.66960       0.06130       -0.03984166
 C       3.67580       1.09300       -0.52420       -0.01175366
 C       3.98220       0.67280       -1.84250       -0.00528650
 C       5.16540       1.05770       -2.54800       0.05957667
 N       5.42780       0.65350       -3.77460       -0.22279432
 C       4.53460       -0.17460       -4.41210       0.06271902
 C       3.36390       -0.60970       -3.83590       -0.02997436
 C       3.06350       -0.17570       -2.51000       0.10228599
 N       1.89720       -0.58920       -1.91930       -0.23583690
 C       4.90270       -0.59660       -5.80980       0.23927984
 C       6.14540       -0.03110       -6.40670       -0.13395412
 O       4.18670       -1.37070       -6.39490       -0.35372584
 H       -6.31590       -0.26110       -2.23350       0.06799058
 H       -5.43520       -1.60510       -1.47310       0.07353496
 H       -5.59660       -0.06770       -0.61830       0.07244715
 H       -1.19620       0.43140       -2.61480       0.07438202
 H       -1.97410       -2.07010       2.24860       0.06932538
 H       2.23470       0.98100       1.06670       0.04617668
 H       4.37130       1.74870       0.00200       0.04523586
 H       5.90280       1.71870       -2.07340       0.04715642
 H       2.66600       -1.27260       -4.36000       0.08461442
 H       6.31450       -0.39620       -7.42890       0.06763422
 H       6.11090       1.06980       -6.43470       0.07648424
 H       7.02810       -0.28930       -5.79880       0.07850176
no frequencies
CC(=O)c1cc2c(scc2o1)c1ccc2cnc(cc2n1)C(=O)C
