33
a_10289.out 0.25916
 C       1.81350       3.83960       -1.99290       -0.13681555
 C       1.20580       5.13600       -1.57880       0.24730437
 O       0.95890       6.02050       -2.36210       -0.35671890
 C       0.92430       5.33010       -0.13390       -0.00999082
 C       1.07730       6.55080       0.49180       -0.02259310
 S       0.68320       6.46640       2.17290       0.07080788
 C       0.29520       4.81760       2.07200       0.00906273
 C       0.47210       4.34210       0.76170       -0.05392572
 C       0.08070       2.89770       0.71080       0.23753317
 O       0.07590       2.16290       -0.23410       -0.34036978
 C       -0.32470       2.59200       2.11490       -0.05840095
 C       -0.17560       3.74390       2.90320       0.01094549
 S       -0.59780       3.42470       4.51180       0.07322690
 C       -0.97730       1.77520       4.17030       -0.03954333
 C       -0.79070       1.46760       2.83380       0.01504867
 C       -1.05940       0.19900       2.22000       0.02628754
 S       -0.40300       -1.30950       2.83920       0.02741298
 C       -1.17270       -2.27010       1.58940       -0.01166485
 C       -1.87400       -1.46220       0.76890       -0.09224541
 C       -1.81100       -0.05640       1.11160       -0.00841955
 C       -2.56970       0.79240       0.19300       -0.01353053
 C       -3.18630       0.11900       -0.78780       -0.11922499
 S       -2.90110       -1.63670       -0.66540       1.00064077
 O       -4.12620       -2.30900       -0.30120       -0.53560694
 O       -2.12770       -2.11220       -1.78600       -0.52843984
 H       2.34300       3.92640       -2.95330       0.07049161
 H       2.51210       3.43690       -1.24890       0.05826844
 H       1.02820       3.07030       -2.12840       0.10501358
 H       1.38980       7.46530       0.01030       0.07727273
 H       -1.33020       1.10180       4.93230       0.06611260
 H       -1.05440       -3.34160       1.54940       0.07633078
 H       -2.58080       1.86660       0.33990       0.06973452
 H       -3.78860       0.53190       -1.57850       0.08599549
no frequencies
CC(=O)c1csc2-c3c(C(=O)c12)c(cs3)c1scc2c1C=CS2(=O)=O
