49
s_31420.out 0.25622
 C       0.02620       0.17540       -0.91530       0.03176044
 O       -0.22700       -0.41970       0.36010       -0.25249809
 C       -0.57500       0.43380       1.32920       0.12308430
 S       -0.94360       -0.29960       2.89340       -0.05993819
 C       -1.31060       1.27340       3.59530       -0.01465787
 C       -1.10170       2.26710       2.67660       0.09085774
 O       -1.19140       3.56440       3.06100       -0.29452498
 C       -1.96090       4.40670       2.20730       0.08471528
 C       -1.19850       4.74050       0.93120       -0.06965756
 C       -1.21530       3.57390       -0.05140       0.08545582
 O       -0.26990       2.58420       0.34740       -0.30179628
 C       -0.67670       1.80020       1.38150       0.06043039
 C       -1.75360       1.38400       4.96260       -0.01371161
 C       -2.91100       0.72140       5.36630       -0.03418727
 C       -3.30100       0.72430       6.69920       -0.05471110
 C       -2.59320       1.48600       7.63370       0.00676069
 C       -2.88780       1.37060       9.04770       -0.00786004
 C       -3.75850       0.49400       9.64480       -0.02915539
 S       -3.66400       0.61450       11.36170       -0.02194994
 C       -2.46120       1.84970       11.30670       -0.03016593
 C       -2.15130       2.16590       10.00830       -0.00919244
 C       -1.27120       3.21030       9.53490       0.00549191
 C       -0.72190       4.13950       10.42880       -0.03715961
 C       -0.02280       5.24250       9.95970       -0.03437326
 C       0.08890       5.44940       8.58350       -0.03505508
 C       -0.43090       4.52080       7.69270       -0.04455903
 C       -1.04960       3.34420       8.14730       0.01056625
 C       -1.53920       2.32740       7.22550       -0.02298293
 C       -1.01690       2.14260       5.91430       0.08042363
 N       0.24540       2.58230       5.57630       -0.26104132
 H       0.87310       0.86800       -0.85430       0.06456509
 H       0.27170       -0.69750       -1.53130       0.06872805
 H       -0.86570       0.68590       -1.28710       0.05045250
 H       -2.09430       5.29220       2.86130       0.05219446
 H       -2.94490       3.94650       2.01330       0.03022806
 H       -0.14380       4.98490       1.18670       0.06542395
 H       -1.61710       5.64810       0.45860       0.03905014
 H       -2.21570       3.12770       -0.17130       0.02611135
 H       -0.81910       3.86090       -1.04460       0.04808398
 H       -3.50460       0.17060       4.63520       0.03244413
 H       -4.15620       0.13440       7.01170       0.02876537
 H       -4.41510       -0.20050       9.15300       0.04443639
 H       -2.04550       2.28350       12.19660       0.04257228
 H       -0.86120       4.00220       11.49970       0.02690186
 H       0.41040       5.95530       10.65640       0.02598696
 H       0.57700       6.34760       8.21020       0.02435600
 H       -0.39610       4.73870       6.62570       0.03169459
 H       0.48120       2.69480       4.60980       0.17463015
 H       0.79800       3.09470       6.23140       0.17300614
no frequencies
COc1sc(c2OCCCOc12)c1ccc2c3cscc3c3ccccc3c2c1N
