40
s_32005.out 0.26177
 C       0.43430       -1.16100       -0.04660       0.02351046
 O       0.03700       0.21000       0.00600       -0.23102863
 C       -0.43020       0.66880       1.16540       0.15598397
 S       -0.78580       -0.19000       2.63930       0.03082086
 C       -1.34210       1.23080       3.43510       -0.04430676
 C       -1.25350       2.32750       2.61210       0.00384447
 C       -1.58770       3.68420       2.92140       -0.02375797
 C       -1.39510       4.65000       1.98020       0.01225928
 C       -0.91000       4.34820       0.66200       -0.00298021
 C       -0.56650       3.05820       0.33160       0.04999205
 C       -0.06470       2.68090       -0.99670       0.01787391
 C       -0.90590       2.61250       -2.07900       -0.02997764
 C       -0.42290       2.22580       -3.35940       0.03104514
 C       -1.38340       2.20790       -4.49650       -0.10932427
 C       0.90130       1.89720       -3.52720       -0.04252711
 C       1.78970       1.95620       -2.42860       -0.00320980
 C       3.18190       1.63770       -2.51830       0.07865680
 N       3.98580       1.71740       -1.47320       -0.23638472
 C       3.44790       2.13440       -0.27060       0.14189468
 N       2.17350       2.43880       -0.07830       -0.24475748
 C       1.31870       2.35710       -1.15350       0.10876889
 C       -0.73280       2.02420       1.29670       -0.02415024
 N       -0.82520       5.40530       -0.33810       0.55239140
 O       -1.72250       6.22990       -0.35330       -0.37645688
 O       0.09890       5.37760       -1.12850       -0.37753683
 N       -1.65980       6.04080       2.37370       0.55439308
 O       -0.82470       6.87800       2.09910       -0.35886704
 O       -2.68080       6.25090       3.00550       -0.37025648
 H       -0.41980       -1.82800       0.10810       0.06637124
 H       0.79660       -1.24580       -1.08240       0.08031945
 H       1.25200       -1.36570       0.65290       0.06693063
 H       -1.69780       1.21930       4.44930       0.07062215
 H       -1.98260       3.91200       3.91530       0.08144636
 H       -1.96510       2.86210       -1.97460       0.04546775
 H       -2.25550       1.57260       -4.28330       0.05165016
 H       -0.93770       1.83960       -5.43010       0.04696336
 H       -1.76440       3.22260       -4.70460       0.06043347
 H       1.28870       1.59940       -4.50100       0.04457196
 H       3.62160       1.31740       -3.47210       0.04747398
 H       4.14910       2.21340       0.57550       0.05183656
no frequencies
COc1scc2cc(c(c(c3cc(C)cc4[CH]N=C[N]c34)c12)N(=O)=O)N(=O)=O
