51
s_13440.out 0.26335
 C       1.51090       0.09940       -0.32260       -0.03887601
 N       0.17220       -0.07760       0.22330       -0.15320133
 C       -0.26470       0.58250       1.33380       0.08435550
 C       0.48890       1.59530       2.00550       -0.05779695
 C       -0.03650       2.24020       3.10350       -0.02414111
 C       -1.31870       1.93640       3.61550       -0.04526807
 C       -2.04720       0.96330       2.97730       0.00518550
 C       -3.39220       0.42720       3.25670       0.00217316
 C       -4.29890       0.75170       4.24120       -0.03380297
 C       -5.52940       0.07030       4.26070       -0.02662516
 C       -5.81800       -0.91360       3.32890       -0.03496422
 C       -4.88160       -1.26330       2.33220       0.02924656
 C       -3.68710       -0.57840       2.29600       -0.03375344
 C       -2.52020       -0.69900       1.36440       0.22717828
 O       -2.40540       -1.43220       0.41490       -0.40193355
 C       -1.53340       0.28230       1.84370       -0.07027731
 C       -5.18370       -2.34670       1.38550       0.01252211
 C       -5.35310       -2.04580       0.04090       -0.05151549
 C       -5.64010       -3.08070       -0.86880       0.08204061
 N       -5.84490       -2.77440       -2.21500       -0.27821835
 C       -5.78570       -4.40380       -0.41210       -0.05839990
 C       -5.61510       -4.68400       0.93560       -0.03251347
 C       -5.29840       -3.66810       1.84340       -0.00847216
 C       -5.06680       -3.99280       3.24270       0.00519985
 C       -3.82210       -3.66860       3.90100       -0.04606435
 C       -3.79750       -4.02820       5.21290       -0.02085153
 S       -5.29890       -4.77570       5.67760       -0.03066383
 C       -5.96270       -4.60140       4.08090       -0.01440914
 C       -7.30660       -5.07720       3.73210       0.24779088
 C       -8.45980       -4.35790       4.36990       -0.13074976
 O       -7.47820       -5.99260       2.96510       -0.35193816
 H       1.62070       -0.49900       -1.24440       0.05111156
 H       1.69870       1.15730       -0.58460       0.05019402
 H       2.28910       -0.22590       0.39240       0.04588246
 H       -0.41560       -0.81070       -0.16660       0.19342674
 H       1.47580       1.85420       1.63990       0.03586517
 H       0.54780       3.01550       3.60330       0.03263522
 H       -1.69950       2.46270       4.48190       0.03171035
 H       -4.07670       1.51110       4.98510       0.03466911
 H       -6.26180       0.32220       5.02660       0.03315561
 H       -6.77270       -1.43690       3.35840       0.02850375
 H       -5.24270       -1.02250       -0.30710       0.03045110
 H       -5.83080       -3.52270       -2.87600       0.15898361
 H       -5.47380       -1.91170       -2.55840       0.16012984
 H       -6.03110       -5.20080       -1.10630       0.03096379
 H       -5.72490       -5.71090       1.29840       0.04935826
 H       -3.01290       -3.19040       3.36400       0.03973142
 H       -2.99030       -3.89700       5.91080       0.04758369
 H       -9.36930       -4.45340       3.75710       0.06718175
 H       -8.25890       -3.28850       4.50860       0.05225666
 H       -8.69280       -4.78550       5.35550       0.07494970
no frequencies
CNc1cccc2-c3cccc(c3C(=O)c12)c1cc(N)ccc1c1ccsc1C(=O)C
