27
h_759.out 0.27617
 C       1.96650       1.31840       0.06480       -0.09494170
 C       1.35690       0.12870       0.03470       -0.03310021
 C       2.02200       -1.15210       0.05190       0.03603159
 C       1.44390       -2.43050       0.10540       -0.06474760
 C       2.49240       -3.37780       0.11250       -0.06212163
 C       3.70370       -2.67000       0.05690       0.03984039
 N       3.40570       -1.31000       0.02020       -0.10150763
 C       5.03830       -3.17280       0.04840       -0.01494174
 S       6.31740       -2.51290       -0.96860       -0.06613575
 C       7.50430       -3.65340       -0.39210       -0.05929806
 C       6.93410       -4.49570       0.51110       0.10774080
 O       7.59950       -5.51020       1.11690       -0.28259070
 C       6.91100       -5.98270       2.28200       0.07314357
 C       5.42950       -6.18860       1.98600       0.07270778
 O       4.79890       -4.94780       1.64210       -0.27587125
 C       5.53210       -4.23280       0.75750       0.10076929
 H       1.42780       2.25360       0.05410       0.03185533
 H       3.03200       1.46140       0.10580       0.02795034
 H       0.26340       0.05900       -0.00230       0.04021528
 H       0.39890       -2.64920       0.13870       0.03390772
 H       2.38990       -4.44090       0.15490       0.03621029
 H       4.06870       -0.56910       0.00160       0.16950849
 H       8.52370       -3.65000       -0.72970       0.06157145
 H       7.44350       -6.92410       2.50660       0.06173121
 H       7.07840       -5.25320       3.09590       0.04922893
 H       5.26760       -6.89630       1.15220       0.05059779
 H       4.85040       -6.50810       2.87160       0.06224602
no frequencies
C=Cc1ccc([nH]1)c1scc2OCCOc12
