107
m_16884.out 0.25339
 C       2.74100       0.75650       -1.03540       0.04497995
 O       2.89410       -0.60720       -0.69180       -0.32891782
 C       2.59920       -0.89380       0.67070       0.11914933
 C       2.01620       -2.33080       0.62040       -0.01752043
 C       1.98800       -2.95430       2.01090       -0.10641907
 C       0.60090       -2.26110       -0.01720       0.11067713
 O       -0.02260       -1.14870       0.63740       -0.27520811
 C       -0.79260       -0.31650       -0.10230       0.36893636
 C       -1.08530       0.92440       0.66320       -0.15448499
 O       -1.15010       -0.57640       -1.22620       -0.42724385
 C       -0.26400       -3.51190       0.24480       -0.02510152
 C       0.40410       -4.72940       -0.39270       -0.11841475
 C       -1.69270       -3.31940       -0.30880       0.11340346
 O       -2.33500       -2.44310       0.61070       -0.46631883
 C       -2.55690       -4.59990       -0.40220       -0.04292553
 C       -3.81890       -4.27030       -1.20590       -0.10719532
 C       -2.95340       -5.15490       0.98350       0.12080270
 O       -1.79810       -5.50310       1.72580       -0.45738813
 C       -3.75780       -6.47970       0.90240       -0.01413403
 C       -3.00760       -7.55890       0.11300       -0.10031367
 C       -3.96900       -6.98610       2.29780       -0.03524634
 C       -5.17850       -7.17750       2.83320       -0.04599625
 C       -5.38830       -7.71400       4.17390       -0.03700415
 C       -4.97570       -7.13130       5.30510       -0.02437055
 C       -5.23350       -7.67200       6.66550       -0.10085347
 C       -4.28460       -5.81070       5.30900       0.28262344
 O       -4.85870       -4.75140       5.38750       -0.39563468
 N       -2.88800       -5.89870       5.26440       -0.16506185
 C       -2.03120       -4.78560       5.18370       0.05372250
 C       -0.69570       -4.94520       5.53670       0.09649700
 O       -0.28830       -6.20500       5.93840       -0.42361523
 C       0.26670       -3.91040       5.42810       -0.04815600
 C       1.66020       -4.10950       5.71440       0.14959377
 O       2.14570       -5.30620       6.07970       -0.37906651
 C       2.60620       -3.09460       5.61830       -0.01958769
 C       4.04630       -3.31970       5.88450       -0.10107364
 C       2.11640       -1.85360       5.19900       0.14029508
 O       2.95160       -0.78750       5.05690       -0.28459228
 C       2.20950       0.27890       4.42290       0.24301912
 C       2.49970       1.55610       5.15350       -0.11329997
 O       2.56640       0.35260       3.06430       -0.29632077
 C       3.78720       -0.17190       2.71300       0.08510384
 C       3.83710       -0.77400       1.51220       0.00639984
 S       5.37260       -1.50290       1.04980       -0.16676957
 C       5.53640       -1.27850       -0.74710       -0.04625368
 C       0.70290       -0.21950       4.38840       0.22001289
 O       -0.17400       0.49060       4.00460       -0.33726994
 C       0.78010       -1.59480       4.87180       -0.06112508
 C       -0.16860       -2.63040       4.99370       -0.00641764
 C       -1.55410       -2.48140       4.67640       0.13486378
 O       -1.94540       -1.21120       4.36420       -0.25329137
 C       -2.58470       -1.11650       3.09260       0.04148239
 C       -3.59220       -0.00300       3.17400       0.36519644
 O       -4.18190       0.08770       4.38250       -0.34981613
 O       -3.91160       0.72580       2.26600       -0.41224568
 C       -2.46150       -3.50890       4.75440       -0.07367041
 H       1.69360       1.06210       -0.93690       0.03174383
 H       3.04490       0.78480       -2.08900       0.05687061
 H       3.39110       1.39260       -0.42740       0.03103080
 H       1.82160       -0.17730       1.04460       0.05412352
 H       2.66340       -2.94560       -0.05270       0.04980205
 H       2.96070       -2.89230       2.51380       0.04126218
 H       1.25240       -2.44650       2.64820       0.03691493
 H       1.73260       -4.01970       1.97850       0.04160104
 H       0.68950       -2.04670       -1.10680       0.05351776
 H       -2.17450       1.05160       0.81770       0.10245481
 H       -0.74280       1.81130       0.10930       0.07392377
 H       -0.60680       0.94870       1.65880       0.08272842
 H       -0.34190       -3.64480       1.35610       0.05565171
 H       -0.07660       -5.66190       -0.05950       0.05991554
 H       1.46150       -4.81280       -0.11310       0.04338238
 H       0.35820       -4.69360       -1.48630       0.03969814
 H       -1.64510       -2.82540       -1.30910       0.03816301
 H       -2.96440       -1.86010       0.14280       0.29734105
 H       -1.97210       -5.37900       -0.94560       0.04869129
 H       -4.47760       -3.58450       -0.66010       0.03616594
 H       -3.57250       -3.79800       -2.16490       0.03914759
 H       -4.39700       -5.17130       -1.43890       0.03859734
 H       -3.52360       -4.39160       1.56140       0.01339356
 H       -1.34540       -4.68600       2.03660       0.28906123
 H       -4.73340       -6.26680       0.40310       0.02962511
 H       -3.48740       -8.53760       0.22280       0.03445260
 H       -2.97180       -7.32710       -0.95590       0.03534355
 H       -1.97230       -7.65330       0.47060       0.05140366
 H       -3.04550       -7.20290       2.83880       0.04995013
 H       -6.09850       -6.96340       2.28570       0.04370548
 H       -5.94950       -8.65440       4.19960       0.04393094
 H       -5.72900       -8.65250       6.64480       0.04748316
 H       -4.30760       -7.78720       7.24710       0.03988997
 H       -5.89250       -6.99500       7.23780       0.05901145
 H       -2.44880       -6.80980       5.15380       0.18348978
 H       -0.64110       -6.39120       6.84600       0.30537826
 H       1.42360       -6.00680       6.06330       0.33784192
 H       4.56180       -3.68720       4.98120       0.06073504
 H       4.20770       -4.07330       6.67100       0.06276917
 H       4.55960       -2.39990       6.20050       0.05703146
 H       3.57060       1.80100       5.14320       0.06139002
 H       1.96370       2.39710       4.68250       0.06802635
 H       2.18220       1.50560       6.20450       0.05431972
 H       4.58240       -0.02830       3.43400       0.05191137
 H       6.53140       -1.62860       -1.04140       0.05631842
 H       4.78130       -1.85280       -1.29970       0.06556203
 H       5.42980       -0.22870       -1.04050       0.05470661
 H       -1.77380       -0.87730       2.36180       0.10103380
 H       -3.07860       -2.05570       2.76800       0.08321471
 H       -4.84520       0.82260       4.43990       0.33201298
 H       -3.51560       -3.33810       4.51030       0.09584569
no frequencies
CO[C@H]1[C@@H](C)[C@H](OC(=O)C)[C@H](C)[C@H](O)[C@H](C)[C@H](O)[C@@H](C)/C=C/C=C(/C)\C(=O)Nc2c(O)c3c(O)c(C)c4O[C@@](C)(O/C=C\1/SC)C(=O)c4c3c(OCC(=O)O)c2
