28
h_411.out 0.26217
 C       1.61590       0.01170       3.58700       -0.08301252
 C       2.11280       -1.18660       3.27890       0.02205160
 C       2.63320       -2.20480       4.22990       -0.03935400
 C       3.07430       -3.30300       3.57090       -0.03227095
 C       2.87970       -3.11070       2.13600       -0.00878929
 C       3.08170       -3.79040       0.98500       -0.02143990
 S       2.53180       -2.82660       -0.36930       -0.05685470
 C       2.00250       -1.47970       0.65710       0.02410248
 C       1.41290       -0.31050       0.10270       0.00616731
 S       -0.04710       -0.33950       -0.80260       0.01784079
 C       -0.09530       1.34100       -1.03070       -0.03784259
 C       0.99400       1.94830       -0.42540       -0.00191456
 C       1.31900       3.33700       -0.38080       -0.03424094
 C       2.44580       3.74540       0.26850       -0.02982157
 C       3.31510       2.80250       0.90670       -0.02982288
 C       3.03980       1.46780       0.88720       -0.03048304
 C       1.86660       1.00000       0.22550       -0.00592279
 C       2.27030       -1.78510       1.95190       -0.02250830
 H       1.25600       0.71010       2.84230       0.04103904
 H       1.53370       0.38240       4.59760       0.04319835
 H       2.62850       -2.03220       5.28980       0.03488883
 H       3.50030       -4.19750       3.98430       0.03238947
 H       3.50600       -4.76740       0.85100       0.04656257
 H       -0.87410       1.84580       -1.57290       0.04662223
 H       0.65150       4.04120       -0.87110       0.02876233
 H       2.71270       4.79970       0.31650       0.03058237
 H       4.20320       3.18350       1.40820       0.03060202
 H       3.68990       0.73490       1.36420       0.02946866
no frequencies
[CH2]C1=CC=C2[CH]SC(=C12)c1scc2ccccc12
