41
a_9588.out 0.26529
 C       3.48830       2.41280       -2.55150       -0.13276265
 C       3.51660       1.46170       -1.39290       0.23653901
 O       4.55570       1.20350       -0.83050       -0.36549099
 C       2.24630       0.83440       -0.94700       -0.01361386
 C       2.28870       0.00440       0.17190       -0.01144911
 C       1.13920       -0.64700       0.64390       -0.03019108
 C       -0.04750       -0.45760       -0.03330       0.01477914
 C       -0.09070       0.40890       -1.16010       -0.02409084
 C       1.03240       1.05340       -1.62230       -0.01600695
 C       -1.49180       0.46730       -1.67240       0.23302563
 O       -1.90090       1.10070       -2.60420       -0.34157716
 C       -2.27330       -0.43530       -0.77300       -0.02236848
 C       -3.61550       -0.72810       -0.79840       -0.01247393
 C       -4.11860       -1.61060       0.17450       -0.02325927
 C       -3.27570       -2.17480       1.11790       -0.01762047
 C       -1.89300       -1.88670       1.13170       0.02230057
 C       -1.05990       -2.53790       2.13360       0.01455743
 C       -0.07640       -3.46990       1.86610       -0.03820304
 S       0.67830       -4.04620       3.31510       0.03699325
 C       -0.29330       -3.06250       4.29900       0.01208314
 C       -1.18780       -2.31070       3.52110       -0.05804911
 C       -2.04130       -1.47100       4.41850       0.23728371
 O       -2.92890       -0.72780       4.11800       -0.33571626
 C       -1.53850       -1.80470       5.78760       -0.05141752
 C       -0.50600       -2.75060       5.68590       0.01155392
 S       0.08380       -3.15490       7.22510       0.04018692
 C       -1.03030       -2.07980       8.01460       -0.02987547
 C       -1.83660       -1.42530       7.11100       -0.02864376
 C       -1.39720       -0.99920       0.19530       0.00154696
 H       4.49790       2.79680       -2.76970       0.06576218
 H       3.12280       1.92890       -3.46720       0.06404388
 H       2.84980       3.28310       -2.34720       0.06401257
 H       3.24100       -0.14390       0.69380       0.06926238
 H       1.19300       -1.27870       1.52750       0.04200366
 H       0.97200       1.71470       -2.48830       0.06191845
 H       -4.27370       -0.28690       -1.54690       0.05848931
 H       -5.18230       -1.84450       0.18620       0.04826403
 H       -3.67760       -2.84880       1.87650       0.04719301
 H       0.21160       -3.82250       0.89060       0.05422319
 H       -1.05040       -1.97370       9.08410       0.05697034
 H       -2.60760       -0.70810       7.36320       0.05981724
no frequencies
CC(=O)c1ccc2-c3c(C(=O)c2c1)cccc3c1csc2-c3c(C(=O)c12)ccs3
