26
f_5855.out 0.29039
 C       1.06370       0.94390       0.00020       -0.09164383
 C       0.72590       -0.34910       -0.00010       -0.03266597
 C       1.65810       -1.45380       0.00000       0.04148410
 C       1.37140       -2.81990       0.00010       -0.07236574
 C       2.61220       -3.51680       -0.00020       -0.01342172
 C       3.64500       -2.53830       0.00010       0.03563654
 N       3.05030       -1.28630       0.00000       -0.11158303
 C       5.02490       -2.89110       -0.00010       -0.00161782
 C       6.07220       -1.94490       0.00000       -0.03749007
 C       7.38390       -2.36580       -0.00010       -0.03256065
 C       7.68700       -3.74250       0.00000       -0.03322583
 C       6.67590       -4.67770       0.00010       -0.03431120
 C       5.31960       -4.27390       -0.00010       0.00943795
 C       4.26640       -5.25160       0.00000       -0.04663237
 C       2.95020       -4.89250       0.00010       -0.03424846
 H       0.33450       1.74040       0.00010       0.03323496
 H       2.07390       1.31610       0.00000       0.02833243
 H       -0.32690       -0.65650       0.00000       0.04140525
 H       0.40200       -3.26800       -0.00010       0.03292970
 H       3.52500       -0.41430       0.00000       0.16358325
 H       5.83630       -0.88440       -0.00020       0.01839801
 H       8.19660       -1.64250       -0.00010       0.02530322
 H       8.72890       -4.05650       0.00010       0.02634624
 H       6.90950       -5.74130       0.00010       0.02931713
 H       4.55380       -6.30140       0.00000       0.02746255
 H       2.15110       -5.63060       0.00000       0.02889536
no frequencies
C=Cc1cc2c([nH]1)c1ccccc1cc2
