33
a_9022.out 0.24199
 C       4.17230       -2.90490       -1.87520       -0.09738674
 C       3.71050       -3.77960       -0.79980       -0.01617318
 C       2.53940       -3.80640       -0.12130       -0.00070811
 C       1.34570       -3.01720       -0.25000       -0.02156691
 C       0.28690       -3.25870       0.56260       0.01541130
 C       0.34890       -4.28630       1.59540       -0.02360007
 C       1.44070       -5.06130       1.77020       -0.03112564
 C       2.59020       -4.88080       0.92100       0.02288256
 C       3.78270       -5.51620       0.87330       -0.09519503
 C       4.59000       -4.89340       -0.22080       0.23494590
 O       5.68440       -5.19120       -0.59960       -0.31473390
 C       -0.95590       -2.51100       0.43950       0.01182255
 C       -2.21510       -3.07660       0.54930       -0.03802587
 S       -3.47350       -1.90540       0.38020       0.03275885
 C       -2.36610       -0.64280       0.15800       0.01223882
 C       -1.04530       -1.12010       0.20130       -0.05949586
 C       -0.10640       0.02540       -0.01400       0.23636388
 O       1.08810       0.00540       -0.08910       -0.34042766
 C       -1.01450       1.20590       -0.15370       -0.05232352
 C       -2.34740       0.77800       -0.05420       0.01179900
 S       -3.40930       2.09180       -0.21180       0.03401757
 C       -2.10110       3.21790       -0.41260       -0.03027743
 C       -0.87580       2.59300       -0.35830       -0.02915550
 H       5.03450       -3.32970       -2.41710       0.06144187
 H       3.38380       -2.69150       -2.61470       0.05192143
 H       4.49970       -1.92550       -1.47780       0.06808113
 H       1.33060       -2.23350       -1.01060       0.05848500
 H       -0.52820       -4.39300       2.23490       0.03652112
 H       1.49470       -5.82640       2.54160       0.04072198
 H       4.15670       -6.32090       1.46780       0.05361263
 H       -2.42520       -4.11910       0.70860       0.05355608
 H       -2.28050       4.26730       -0.55860       0.05531234
 H       0.08290       3.08480       -0.45670       0.05830140
no frequencies
C[C]1c2cc(ccc2[CH]C1=O)c1csc2-c3c(C(=O)c12)ccs3
