54
s_24512.out 0.26309
 C       0.87960       0.61120       -0.88870       0.03688267
 O       -0.36730       0.35940       -0.24800       -0.27922196
 C       -0.39170       0.53850       1.10030       0.35217524
 O       0.57680       0.92130       1.70950       -0.41030137
 C       -1.70540       0.21780       1.63440       -0.02452236
 S       -2.32840       1.05280       3.02470       0.03088708
 C       -3.77780       0.11490       3.02920       -0.02002883
 C       -3.77530       -0.80290       2.01700       -0.04975600
 C       -2.58980       -0.74730       1.20730       0.00930521
 C       -2.38360       -1.65290       0.08790       0.00084094
 C       -2.32750       -3.03430       0.31030       -0.03280395
 C       -2.08500       -3.90650       -0.73780       -0.06048676
 C       -1.88520       -3.40270       -2.04000       0.07712442
 N       -1.56660       -4.27450       -3.07260       -0.27313428
 C       -1.96000       -2.01060       -2.26930       -0.02081533
 C       -2.21970       -1.15210       -1.20410       -0.03044687
 C       -1.73470       -1.44200       -3.59860       0.01989496
 C       -2.79020       -0.87580       -4.31500       -0.03410656
 C       -2.54060       -0.30910       -5.56260       -0.00104828
 C       -1.24550       -0.20120       -6.10010       0.01484551
 C       -0.22430       -0.90870       -5.42340       0.01120794
 C       -0.46610       -1.48370       -4.17130       -0.04283608
 C       1.04830       -1.10670       -6.07930       -0.00978620
 C       2.10780       -1.85820       -5.63070       -0.03200929
 S       3.35200       -1.92060       -6.81590       0.01529916
 C       2.48400       -0.93420       -7.92650       -0.03080027
 C       1.27210       -0.56000       -7.39910       -0.00708866
 C       0.29300       0.33310       -7.97720       0.01294560
 C       0.56660       1.00750       -9.17560       -0.03411899
 C       -0.30260       1.97860       -9.65080       -0.02438341
 C       -1.43380       2.31740       -8.90590       -0.02487579
 C       -1.72450       1.63680       -7.73120       -0.02561707
 C       -0.91000       0.58470       -7.28470       0.01160741
 N       -3.73050       0.08310       -6.31630       0.54113494
 O       -3.84370       -0.32370       -7.45820       -0.38210290
 O       -4.57000       0.76100       -5.74540       -0.38643993
 H       1.66690       -0.01460       -0.45620       0.06238194
 H       0.67600       0.33430       -1.93080       0.06345766
 H       1.13980       1.67080       -0.79700       0.06433015
 H       -4.55720       0.26850       3.75610       0.05993991
 H       -4.56860       -1.50550       1.80960       0.04777817
 H       -2.46810       -3.42230       1.32040       0.03451013
 H       -2.03680       -4.97540       -0.55650       0.03305136
 H       -1.63870       -3.95170       -4.01720       0.16026861
 H       -1.70100       -5.25380       -2.94070       0.16483148
 H       -2.29180       -0.07420       -1.38310       0.04786444
 H       -3.80250       -0.88770       -3.89940       0.06300556
 H       0.34410       -1.97930       -3.63200       0.04673609
 H       2.18830       -2.36710       -4.68620       0.05008565
 H       2.88000       -0.66940       -8.89060       0.05148798
 H       1.47370       0.77500       -9.73030       0.03496069
 H       -0.09510       2.48840       -10.59000       0.03820118
 H       -2.09150       3.11580       -9.24770       0.04193137
 H       -2.59040       1.95670       -7.15120       0.03775772
no frequencies
COC(=O)c1sccc1c1ccc(N)c(c1)c1cc(c2c(c1)c1cscc1c1ccccc21)N(=O)=O
