55
s_26307.out 0.27485
 C       1.19640       0.42720       -0.52400       0.03500244
 O       0.71450       -0.17820       0.66860       -0.27159689
 C       -0.23580       0.49930       1.36100       0.13627315
 C       -0.82390       1.70850       0.97310       -0.07903082
 C       -1.79850       2.29780       1.78430       0.00949569
 C       -2.17950       1.71090       3.00130       -0.05324112
 C       -1.60530       0.50680       3.35920       0.00247173
 C       -1.87930       -0.34240       4.57460       -0.06337611
 C       -0.96610       -1.52480       4.37380       0.00373381
 C       -0.79290       -2.63960       5.16750       -0.03905769
 C       0.12800       -3.61330       4.75650       -0.03363479
 C       0.85420       -3.46070       3.57920       -0.03429050
 C       0.68040       -2.33260       2.76820       -0.03436469
 C       -0.23040       -1.37110       3.16750       0.00793487
 C       -0.63260       -0.11980       2.54530       -0.02569272
 C       -2.40920       3.57730       1.39220       0.00292768
 C       -1.54210       4.60780       1.02430       -0.03824578
 C       -2.03020       5.89200       0.80040       -0.03456791
 C       -3.36650       6.17100       1.05230       -0.03908148
 C       -4.24800       5.15990       1.45650       0.00458453
 C       -5.57860       5.49730       1.96230       0.00633448
 C       -6.03610       6.82340       1.99490       -0.03533509
 C       -7.23190       7.15320       2.61850       -0.03235670
 C       -7.99690       6.16060       3.23420       -0.03092458
 C       -7.58030       4.83800       3.17980       -0.03721359
 C       -6.39290       4.49200       2.52020       0.00803921
 C       -6.03210       3.10560       2.31660       -0.01130492
 C       -6.83360       2.01880       2.54190       -0.03110545
 S       -6.14350       0.60150       1.84790       -0.04563889
 C       -4.75230       1.46660       1.23160       0.02429370
 C       -3.81730       0.77680       0.33370       -0.09820918
 C       -4.78190       2.77390       1.65530       -0.01759766
 C       -3.79360       3.82090       1.48510       0.00704326
 H       1.64640       1.40240       -0.31440       0.04364822
 H       1.96400       -0.28680       -0.85160       0.06163100
 H       0.40030       0.50330       -1.27080       0.04318520
 H       -0.54070       2.18890       0.04260       0.03262222
 H       -2.92270       2.19180       3.63320       0.02957493
 H       -1.65790       0.19930       5.51430       0.05387848
 H       -2.94350       -0.64480       4.62950       0.05442913
 H       -1.35100       -2.76770       6.08980       0.02598454
 H       0.27380       -4.49980       5.36990       0.02630568
 H       1.56680       -4.22650       3.27980       0.02648906
 H       1.24570       -2.21560       1.84620       0.04352091
 H       -0.47410       4.41120       0.93410       0.02843375
 H       -1.35910       6.68140       0.46980       0.02711431
 H       -3.72160       7.19610       0.94920       0.03258943
 H       -5.44930       7.61550       1.53060       0.03231508
 H       -7.57130       8.18710       2.63380       0.02823380
 H       -8.92050       6.42280       3.74540       0.02854198
 H       -8.18360       4.06120       3.64660       0.02772251
 H       -7.78750       2.00600       3.03540       0.04288747
 H       -3.23660       1.49250       -0.27520       0.04644961
 H       -4.31580       0.10230       -0.38010       0.04909402
 H       -3.08000       0.16270       0.88590       0.05308068
no frequencies
COc1cc(cc2Cc3ccccc3-c12)c1cccc2c3ccccc3c3csc(C)c3c12
