35
s_45178.out 0.28929
 N       -3.42390       -1.16270       0.47550       -0.24145365
 C       -2.07900       -1.21490       0.33980       0.10336308
 S       -1.02860       -2.08200       1.48130       -0.06029538
 C       0.40240       -1.63120       0.59200       -0.03554218
 C       0.10030       -0.87660       -0.49990       0.00319560
 C       -1.31330       -0.63110       -0.66520       -0.04602858
 C       -1.84290       0.11910       -1.72440       0.10567320
 N       -2.29390       0.73000       -2.60100       -0.27215523
 C       1.09250       -0.34490       -1.43360       0.01401155
 C       2.12230       0.47500       -0.93900       -0.04301494
 C       3.07990       1.01760       -1.78810       -0.02867159
 C       3.00630       0.72960       -3.14500       -0.00975369
 C       1.95320       -0.10830       -3.63450       0.05687024
 C       0.99130       -0.65320       -2.78890       -0.05008688
 N       2.08920       -0.25430       -5.02620       -0.12482336
 C       3.19470       0.48830       -5.43670       0.06141528
 C       3.71430       0.66300       -6.72210       -0.04801229
 C       4.84530       1.45520       -6.85350       -0.02640740
 C       5.44860       2.05630       -5.73540       -0.04038530
 C       4.92830       1.89760       -4.45120       -0.02494510
 C       3.80020       1.10910       -4.29080       -0.00610985
 C       6.65720       2.91600       -5.93200       0.48827972
 F       6.36880       4.20070       -6.15210       -0.21363158
 F       7.43420       2.57580       -6.96180       -0.21207818
 F       7.50110       2.94400       -4.89870       -0.21213294
 H       -3.98190       -0.65930       -0.18980       0.18990256
 H       -3.90680       -1.60910       1.22610       0.18651249
 H       1.38020       -1.94790       0.90920       0.04727654
 H       2.15580       0.69400       0.12720       0.03615504
 H       3.87000       1.65930       -1.40250       0.04143262
 H       0.19100       -1.28390       -3.16440       0.03687898
 H       1.44890       -0.72910       -5.62070       0.16920269
 H       3.24660       0.20050       -7.58530       0.04526245
 H       5.26080       1.61360       -7.85240       0.05428816
 H       5.37820       2.37880       -3.58120       0.05580791
no frequencies
Nc1scc(c1C#N)c1ccc2c(c1)[nH]c1ccc(cc21)C(F)(F)F
