46
a_6552.out 0.24611
 C       3.97690       2.09220       6.17970       -0.12989791
 C       2.87180       1.29850       5.54470       0.23486656
 O       2.10330       0.66100       6.22640       -0.36912164
 C       2.73860       1.31350       4.06640       -0.01781928
 C       1.58640       0.75250       3.50410       -0.02077756
 C       1.44730       0.70000       2.12670       -0.03812605
 C       2.45300       1.18750       1.27860       0.01669868
 C       2.37270       1.02810       -0.15840       -0.01251634
 C       1.47360       0.29030       -0.90010       0.01690206
 S       1.80800       0.43220       -2.59640       0.01434046
 C       3.16500       1.44280       -2.33800       -0.03036632
 C       3.35560       1.67890       -0.99730       -0.00758611
 C       4.42170       2.45820       -0.40970       0.01017333
 C       5.32760       3.15460       -1.22480       -0.03560365
 C       6.36250       3.88710       -0.66480       -0.02899303
 C       6.50670       3.93080       0.72420       -0.03076949
 C       5.61180       3.25170       1.53770       -0.03499291
 C       4.55150       2.51020       0.99080       0.00667659
 C       3.57200       1.83990       1.84250       0.00774830
 C       3.70840       1.86290       3.23820       -0.03653182
 C       0.37600       -0.54710       -0.49660       0.01627304
 C       0.50640       -1.78680       0.10450       -0.03799424
 S       -1.02860       -2.51590       0.42650       0.04369201
 C       -1.87330       -1.20000       -0.23210       0.01214083
 C       -0.98450       -0.21630       -0.69270       -0.05766102
 C       -1.76330       0.92610       -1.26680       0.23794501
 O       -1.35350       1.93210       -1.76650       -0.33333203
 C       -3.18680       0.50240       -1.08270       -0.05113701
 C       -3.22070       -0.76020       -0.47090       0.01204911
 S       -4.82450       -1.27110       -0.24930       0.03836862
 C       -5.46200       0.17950       -0.96440       -0.02990260
 C       -4.46050       1.03560       -1.36260       -0.02865987
 H       3.91280       2.04590       7.27800       0.06233553
 H       4.96450       1.70280       5.90010       0.05932695
 H       3.92960       3.15120       5.89430       0.05702360
 H       0.80660       0.35390       4.15790       0.05711628
 H       0.53500       0.28350       1.70310       0.03325652
 H       3.76460       1.81920       -3.14800       0.05055823
 H       5.21340       3.12260       -2.30700       0.03166063
 H       7.05900       4.42820       -1.30160       0.03262543
 H       7.31950       4.50390       1.16560       0.03171806
 H       5.73910       3.30820       2.61840       0.03292011
 H       4.59500       2.31960       3.68090       0.04414278
 H       1.43600       -2.26600       0.36140       0.05533729
 H       -6.51960       0.34330       -1.06040       0.05639433
 H       -4.60930       1.99970       -1.83110       0.05949853
no frequencies
CC(=O)c1ccc2c3c(scc3c3ccccc3c2c1)c1csc2-c3c(C(=O)c12)ccs3
